$ WAVEWATCH III Point output post-processing
$ ------------------------------------------
  TIME  DT  999
$
  POINT
 -1
$
  4
  4 1 REFT 'UTC' 
$
$ End of input file
