$ -------------------------------------------------------------------- $
$ WAVEWATCH III Grid preprocessor input file                           $
$ -------------------------------------------------------------------- $
  'Alaskan 10 min wave grid      '
$
   1.07  0.035  50  36  0.5
$
   F T T T F T
$
$   900. 275. 450.  15.                              
$  1200. 275. 600.  15.                              
   1800. 275. 900.  15.                              
$
  &SIN4 BETAMAX = 1.33 /
  &MISC CICE0 = 0.25, CICEN = 0.75, FLAGTR = 4 /
END OF NAMELISTS
$
    'RECT' T 'NONE'
    401    187
      1.5    1.     6.
    140.    44.     1.
     -0.1 2.50  10  0.001 1 1 '(....)' 'NAME' 'ak_10m.bot'
 -838818  -676948  -670822  -495548  -358326  -180148  -51481  999000  999000  999000  999000  999000  999000  999000  999000  999000  999000  -18545  -52492  -67632  -48889  -345774  -316748  -37827  -33348  -60363  -71837  -97341  -115630  -140170  -191148  -307881  -772363  -2286941  -3303681  -4166467  -4910193  -5679859  -6441948  -7640089  -8307274  -8165496  -7783748  -7308378  -6812763  -6339719  -5946904  -5510141  -5243356  -5258667  -5211696  -5257556  -5173570  -5037807  -5073341  -5211733  -5252889  -5248896  -5374644  -5387230  -5353111  -5426970  -5377667  -5410526  -5470533  -5732415  -5352393  -5420607  -5430881  -5359252  -5385222  -5453422  -5478837  -5581704  -5588615  -5525556  -5569304  -5616815  -5515637  -5479193  -5324933  -5405230  -5334237  -5436481  -5709859  -5691519  -5811696  -5697607  -5729163  -5683341  -5726807  -5622422  -5570104  -5591304  -5838889  -5855467  -5803874  -5841111  -5825481  -5794837  -5735193  -5774970  -5640022  -5631437  -5585859  -5577244  -5475148  -5437385  -5306696  -5248074  -5400733  -5664741  -5492800  -5572252  -5321807  -5581378  -5620615  -5620400  -5634393  -5606785  -5462881  -4787622  -4181170  -5034904  -5822993  -5927711  -5917178  -5807281  -5767378  -5687230  -5466785  -5209785  -5322867  -4943237  -5264800  -5551681  -5637896  -5939933  -6317496  -6349044  -5843919  -5710867  -5479452  -5597156  -5695474  -5907163  -5819207  -5752904  -5744311  -5662393  -5726733  -5420652  -5743904  -5757548  -5719593  -5865326  -5703193  -5813948  -5684237  -5668748  -5718096  -5596126  -5892585  -5845378  -5659615  -5739793  -5686237  -5705793  -5588163  -5673467  -5760200  -5992407  -5409385  -6079881  -5699511  -5704793  -5645667  -5708281  -6078370  -5495822  -5673393  -6036304  -5695504  -5823822  -6072304  -6239363  -6076926  -6293519  -5315489  -5459807  -5708674  -5729370  -5739067  -5667830  -5949489  -5920933  -5922563  -5785437  -5784726  -5965244  -6029133  -5676941  -5718652  -5905148  -5808504  -5724007  -5681052  -5652207  -5709696  -5658630  -5742467  -5777341  -5733304  -5707970  -5676541  -5691119  -5535452  -5511933  -5550044  -5321059  -5428481  -5551148  -5543726  -5561644  -5577237  -5522741  -5522511  -5501541  -5482363  -5481837  -5499948  -5460207  -5427148  -5446496  -5417259  -5275074  -5451822  -5361111  -5284785  -5385867  -5384748  -5406815  -5412370  -5363519  -5409970  -5269570  -5355474  -5367741  -5344289  -5185481  -5233948  -5171511  -5299570  -5326956  -5394681  -5362993  -5222289  -5283104  -5334904  -5283044  -5216074  -5453393  -5425793  -5388141  -5382978  -5329607  -5351756  -5408800  -5584726  -5230837  -5209052  -5218963  -5339407  -5170748  -5210511  -5276852  -5276563  -5311467  -5297585  -5229948  -5147852  -5171704  -5152919  -5141593  -5101452  -5071607  -5091585  -5059267  -5103319  -5145519  -5039844  -5032096  -5008593  -4877637  -4747600  -4783911  -4870037  -4734081  -4595985  -4809274  -4686622  -4629763  -4699637  -4642978  -4656711  -4668170  -4403593  -4380830  -4304044  -4258830  -4264978  -4158570  -4240385  -4186881  -4219948  -4165504  -4206570  -4221867  -4327652  -4340170  -4292363  -4332459  -4342363  -4289630  -4193541  -4205704  -4182437  -4143319  -4137133  -4187007  -4154556  -4131348  -4100689  -4078074  -4021689  -4003296  -3375800  -3962526  -4001615  -3971148  -3925652  -3910674  -3840785  -3785837  -3817207  -3800096  -3788726  -3767385  -3719526  -3677341  -3651726  -3610830  -3603859  -3559659  -3596126  -3549467  -3420785  -3351222  -3154141  -2950170  -3230007  -3159104  -2906489  -2816904  -2377881  -2280689  -2612496  -2846030  -2831548  -2932874  -2924481  -2851163  -2924511  -2961822  -3002156  -2984837  -2993585  -3019170  -3017267  -2184459  -785126  -127319  -133637  -68833  999000  999000  999000  999000  999000  999000  999000  999000  999000  999000  999000  999000  999000  999000  999000  999000  999000 
 -1118394  -632206  -378085  -358915  -292376  -162188  -55279  -15273  999000  999000  999000  999000  999000  999000  999000  -23745  -46782  -87766  -474915  -631697  -452594  -387569  -1341085  -453950  -13333  -43867  -84648  -185709  -193200  -157303  -171503  -228939  -346618  -800576  -2183479  -3776339  -4663473  -4892891  -5544703  -6318230  -7420485  -8248012  -8692442  -8207436  -7567855  -6928291  -6515970  -6148824  -5699030  -5511770  -5416358  -5232600  -5149970  -5084073  -4964873  -5168503  -5159709  -5282830  -5204770  -5315945  -5354382  -5360461  -5364655  -5334952  -5394570  -5592085  -5506194  -5461915  -5298315  -5333988  -5448091  -5468909  -5458915  -5549376  -5546382  -5597939  -5480745  -5646739  -5505188  -5439855  -5405436  -5425394  -5227352  -5538412  -5448448  -5446679  -5672915  -5590909  -5893691  -5808879  -5691388  -5619982  -5651727  -5707873  -5738848  -5863697  -5745970  -5796382  -5806618  -5730939  -5797467  -5783867  -5778503  -5778358  -5653067  -5640103  -5559794  -5542576  -5372558  -5332939  -5407279  -5627758  -5584473  -5581709  -5546145  -5615430  -5690752  -5669636  -5771455  -5794048  -5338345  -3012994  -2745661  -4374691  -6097297  -6127697  -5958964  -5855139  -5856545  -5770418  -5467267  -5342915  -5437382  -5093036  -5393345  -5674764  -5767842  -5779091  -6118818  -6270642  -6102848  -5378139  -5707406  -5631297  -5750800  -5912303  -5894315  -5739430  -5603303  -5652891  -5765515  -5766770  -5742818  -5640673  -5781752  -5810976  -5749230  -5679545  -5725103  -5664382  -5589897  -5757055  -5813818  -5683012  -5606315  -5859036  -5476594  -5514770  -5585636  -5770455  -5738873  -5728600  -5244927  -6078673  -5753745  -5823085  -5565867  -5802788  -6021764  -5444600  -6246606  -5999952  -5809073  -5807030  -5763642  -5923727  -5787842  -6060533  -6691455  -5298067  -5457739  -5528200  -5693642  -5656842  -5646182  -5491133  -5737594  -5852030  -5765133  -5754648  -5733982  -5756982  -5739733  -5745309  -5687097  -5742479  -5726964  -5617152  -5568885  -5621176  -5620618  -5801855  -5677255  -5637388  -5636485  -5602315  -5262733  -5495921  -5358885  -5238764  -5351558  -5408727  -5336545  -5504242  -5505121  -5482236  -5462497  -5477448  -5413830  -5423794  -5389358  -5447655  -5386327  -5353442  -5253194  -5381915  -5319636  -4998109  -5182448  -5322715  -5298212  -5365582  -5374570  -5424024  -5405218  -5293321  -5388988  -5382915  -5375752  -5399576  -5302012  -5306903  -5202267  -5152582  -5388800  -5227915  -5293885  -5350461  -5362994  -5341855  -5237048  -5351806  -5150721  -5365030  -5288455  -5224267  -5291448  -5291158  -5274624  -5217158  -5325909  -5029958  -5213418  -5112697  -5210976  -5079806  -5179152  -5162552  -5182861  -5129794  -5065194  -5165648  -5183303  -5160952  -5129370  -5031248  -5018915  -4921212  -4939333  -4958491  -5028673  -4955327  -4994691  -4873497  -4832915  -4720230  -4805636  -4811709  -4828061  -4785867  -4807606  -4764503  -4710709  -4691830  -4716558  -4733909  -4641564  -4408291  -4270467  -4271788  -4381800  -4194224  -4234327  -3600158  -3847945  -4385630  -4446091  -4332145  -4308206  -4280570  -4366788  -4223921  -4320406  -4260976  -4273024  -4246709  -4258388  -4218873  -4201994  -4166200  -4137218  -4116079  -4073436  -4026006  -4009606  -3981418  -4002764  -3952885  -3958958  -3950709  -3937558  -3860558  -3843309  -3824764  -3868170  -3784436  -3791733  -3761939  -3739418  -3726436  -3674630  -3600388  -3594618  -3582521  -3595024  -3597030  -3366206  -3151879  -3024279  -3109558  -2850970  -2743152  -2840976  -2398012  -2417909  -2610267  -2623879  -2821394  -2870242  -2918424  -2932933  -2948915  -2947679  -2941964  -2961455  -2959818  -2978770  -2988018  -2997570  -2214206  -675655  -107467  -107267  -64273  999000  999000  999000  999000  999000  999000  999000  999000  999000  999000  999000  999000  999000  999000  999000  999000  999000 
 -1036206  -485400  -299170  -211442  -318642  -117226  -50455  -13692  999000  999000  999000  999000  999000  -19952  -39743  -84103  -162927  -261006  -901448  -1179830  -975370  -758374  -1532194  -1722442  -359838  -12706  -74699  -227824  -168406  -193509  -201012  -223685  -219642  -194248  -902855  -2282939  -3755612  -4276200  -4708024  -5266600  -6617079  -7392030  -8035158  -8494667  -8147115  -7663206  -7270685  -6881176  -6353279  -5969339  -5523945  -5472685  -5183115  -4989267  -5023861  -5353642  -5122612  -5182461  -5209133  -5214127  -5265758  -5308170  -5299273  -5287315  -5271176  -5289648  -5414697  -5329758  -5418285  -5192188  -5144442  -5431988  -5441552  -5493879  -5597273  -5578879  -5473576  -5608667  -5513121  -5318194  -5261812  -5093806  -5525776  -5691261  -5599055  -5372582  -5517891  -5749509  -5458921  -5812879  -5790782  -5780085  -5722042  -5728873  -5801958  -5701709  -5791491  -5750485  -5831109  -5759400  -5798921  -5764812  -5702309  -5775297  -5695388  -5557291  -5423867  -5428970  -5398927  -5407109  -5492606  -5640885  -5575545  -5648830  -5647691  -5689970  -5714964  -5762376  -5804188  -5823618  -4829933  -2076206  -2805739  -5710576  -6367752  -6224903  -6037976  -5949848  -5851364  -5771436  -5530473  -5540333  -5560042  -5487248  -5727727  -5761970  -5808964  -5869376  -6147352  -6321848  -5486521  -5391539  -5668485  -5670400  -5783558  -5785448  -5755345  -5671812  -5590788  -5596315  -5617461  -5750430  -5747061  -5703673  -5760994  -5780376  -5746897  -5648109  -5721073  -5663655  -5615824  -5658036  -5612012  -5590939  -5772564  -5617794  -5722812  -5368048  -5552636  -5817333  -5934612  -5754703  -5079267  -5826673  -5607545  -5737194  -5689770  -6002339  -5838909  -5346061  -6038879  -5704879  -5735830  -5908085  -5780588  -5805267  -5896515  -5723085  -6520018  -5873752  -5358642  -5358309  -5433521  -5468212  -5427982  -5150873  -5509533  -5771570  -5916612  -5851158  -5873745  -5718515  -5746885  -5755642  -5719448  -5840739  -5693539  -5611085  -5511527  -5471158  -5609497  -5685473  -5704697  -5598115  -5625430  -5714806  -5426691  -5403327  -5305473  -5236327  -5323582  -5408182  -5421285  -5498515  -5528952  -5495685  -5491200  -5565121  -5495061  -5457055  -5404297  -5399242  -5342976  -5350309  -5304630  -5323315  -5340339  -5321739  -5277067  -5242097  -5273818  -5278685  -5329624  -5343994  -5406812  -5267455  -5315491  -5326891  -5363533  -5372109  -5168285  -5124776  -5277927  -5340364  -5353085  -5370473  -5193091  -5329715  -5360455  -5361388  -5416176  -5405661  -5375527  -5311055  -5202345  -5214945  -5224097  -5250988  -4841170  -4900430  -5136448  -5091188  -4986636  -5137182  -5207782  -5210527  -5254824  -5174103  -5271794  -5214339  -5276442  -5188515  -5163745  -5107067  -5099782  -5077552  -5006558  -5031630  -4955582  -4953267  -4971527  -4955715  -4947691  -4851485  -4861927  -4866830  -4899188  -4884000  -4927091  -4837976  -4797006  -4809873  -4624230  -4612582  -4631697  -4712600  -4644448  -4491697  -4278915  -4255855  -4346097  -4093709  -4104442  -4061855  -4279327  -4319636  -4333121  -4372194  -4368176  -4362558  -4376388  -4374830  -4227982  -4302558  -4264024  -4135855  -4220745  -4206806  -4200079  -4183636  -4149479  -4100297  -4059733  -4004103  -3982212  -4001370  -4034624  -3953830  -3937945  -3912685  -3906418  -3870552  -3870152  -3870794  -3886273  -3818806  -3791073  -3759079  -3756655  -3751739  -3683915  -3642152  -3609436  -3619127  -3609315  -3586576  -3291673  -3001788  -2788521  -2756515  -3010776  -2795515  -2633133  -2496582  -2554709  -2820842  -2792970  -2867958  -2874448  -2900442  -2904655  -2924412  -2894836  -2928788  -2929067  -2919248  -2950400  -2943642  -2954715  -2101782  -724679  -171545  -93006  -63285  -9895  999000  999000  999000  999000  999000  999000  999000  999000  999000  999000  999000  999000  999000  999000  999000  999000 
 -585370  -315289  -167896  -187533  -212119  -106940  -64241  -28164  999000  999000  999000  999000  -21429  -47626  -86081  -143993  -189674  -437044  -1286904  -1505281  -1283563  -1646644  -1409674  -2402089  -1216764  -84431  -86200  -308692  -76328  -125585  -200681  -238600  -241437  -89956  -176141  -881600  -2154074  -3460867  -4238015  -4521933  -5168304  -6377037  -7118970  -7427867  -7979963  -8049289  -8092348  -7784496  -7173148  -6494659  -6064319  -5731193  -5378119  -5127289  -5386452  -5180815  -5052919  -5051770  -5108822  -5169296  -5194919  -5180274  -5237637  -5232267  -5062578  -5101007  -5144622  -5347681  -5617741  -5617867  -5189859  -5352956  -5446511  -5362681  -5409193  -5392800  -5470370  -5494726  -5375600  -5441889  -5680022  -5839674  -5790807  -5657593  -5667148  -6073807  -5824141  -5680867  -5689474  -5731533  -5704933  -5795274  -5829948  -5770667  -5870326  -5727096  -5805222  -5678067  -5832511  -5899978  -5903430  -5787163  -5720326  -5710415  -5664800  -5523659  -5378889  -5463348  -5594200  -5604326  -5602230  -5668867  -5634815  -5715281  -5587141  -5689422  -5762459  -5882970  -5870089  -5277867  -2509904  -1217074  -3160030  -5994822  -6370526  -6280104  -6172533  -5992281  -5889533  -5808133  -5737896  -5521778  -5448615  -5564133  -5509689  -5557607  -5673185  -5972341  -6312681  -6062126  -5207956  -5483163  -5600356  -5625170  -5731689  -5687585  -5724059  -5678852  -5527970  -5528319  -5631622  -5694733  -5714341  -5796259  -5762193  -5776067  -5676333  -5679956  -5709785  -5642400  -5588015  -5596896  -5707474  -5533207  -5696370  -5541867  -5585637  -5620504  -5599889  -5667756  -5815348  -5486430  -4802822  -5849711  -5743185  -5644378  -5688126  -5831556  -5615637  -5616741  -5799237  -5919770  -5738607  -5609874  -5452274  -5633163  -5784778  -6157778  -5900496  -6230030  -6082363  -6265852  -6212081  -5661770  -5979541  -5775956  -5697311  -5624007  -5918622  -5969296  -5857126  -5802637  -5824341  -5797178  -5831207  -5723185  -5681030  -5636348  -5585570  -5536104  -5693363  -5788985  -5754815  -5535504  -5553030  -5574556  -5471333  -5460237  -5430778  -5403859  -5455170  -5327274  -5337319  -5491059  -5580267  -5465859  -5441600  -5456430  -5385481  -5313148  -5400615  -5405911  -5373474  -5360400  -5391407  -5335615  -5341941  -5326193  -5256844  -5180274  -5206156  -5257481  -5184667  -5309044  -5377415  -5366511  -5307444  -5325778  -5241519  -5391570  -5323807  -5340052  -4988570  -5355407  -5217533  -5159341  -5337807  -5300830  -5320519  -5418104  -5405326  -5413407  -5335156  -5320659  -5311393  -5285793  -5359993  -5306681  -5157978  -5172859  -5291437  -5277830  -5125489  -5230919  -5245763  -5378489  -5384741  -5298415  -5228393  -5283704  -5284341  -5241867  -5213807  -5152933  -5134074  -5107444  -5043356  -4974659  -5008896  -4942037  -4989000  -4945630  -4908030  -4912370  -4851044  -4820163  -4907215  -4883844  -4897170  -4749970  -4730163  -4673919  -4588289  -4507778  -4569711  -4652000  -4570993  -4636681  -4467052  -4332489  -4392215  -4468222  -4287541  -4329422  -4158170  -4224896  -4293400  -4338770  -4376511  -4398511  -4383370  -4386800  -4310852  -4296163  -4267874  -4187807  -4227400  -4240044  -4206111  -4198830  -4137222  -4138800  -4071393  -4039407  -4014104  -4032652  -4027919  -4000533  -3956919  -3963519  -3955993  -3893756  -3898637  -3893711  -3903044  -3834481  -3832407  -3761733  -3627230  -3743459  -3698541  -3624289  -3585770  -3629756  -3616333  -3457222  -3111800  -2785126  -2491785  -2840000  -2504504  -2578156  -2708000  -2606585  -2740541  -2837237  -2749370  -2853741  -2825541  -2880526  -2893852  -2960474  -2900948  -2910807  -2895593  -2895452  -2918504  -2905793  -2909148  -1914607  -842556  -286674  -100030  -64230  -15200  999000  999000  999000  999000  999000  999000  999000  999000  999000  999000  999000  999000  999000  999000  999000  999000 
 -296127  -129036  -155127  -193448  -145521  -105703  -83012  -35509  999000  999000  999000  -19957  -52287  -95715  -118691  -154812  -185564  -389697  -1451867  -1766182  -1730545  -2066497  -2381806  -2476297  -1745903  -930867  -644461  -364691  -460748  -41848  -141823  -223358  -188733  -88679  -48164  -185345  -923279  -2102061  -2857636  -3728133  -4151897  -5013370  -5855642  -6599079  -7150127  -7491152  -8333861  -8630079  -8064236  -7450188  -6701600  -6105679  -5582927  -5424333  -5309042  -5152339  -5091545  -5001764  -4933273  -5010582  -4986715  -5117255  -5097745  -5136127  -4930988  -5113006  -5128352  -5169121  -5073152  -5027303  -5687079  -5722345  -5368521  -5555297  -5623048  -5655127  -5657897  -5618206  -5687970  -5679182  -5775806  -5603291  -5486648  -5392685  -5387418  -5828509  -5751879  -5710042  -5675539  -5526352  -5968994  -5637612  -5563200  -5836509  -5815067  -5780927  -5841152  -5821297  -5928612  -5857533  -5957788  -5820176  -5795061  -5728382  -5630303  -5549764  -5433703  -5641212  -5636418  -5613133  -5643400  -5650800  -5627630  -5664358  -5626909  -5699364  -5787297  -5337794  -5211345  -3394721  -1658418  -1385879  -3155739  -5609818  -6410436  -6331939  -6178000  -5992206  -5968600  -5769642  -5699382  -5661824  -5698764  -5434879  -5739073  -5661606  -5565921  -5881291  -6496636  -5356745  -5394994  -5479685  -5612067  -5626000  -5620909  -5655297  -5639448  -5598327  -5574224  -5553788  -5559176  -5637636  -5711436  -5737533  -5799194  -5816733  -5690176  -5643848  -5719145  -5588358  -5581655  -5495042  -5564042  -5609667  -5588400  -5537103  -5507424  -5724085  -5802164  -5654612  -5940545  -5740982  -5461636  -5953079  -5745321  -5776921  -5813612  -5771848  -5702533  -5641412  -5667315  -6028824  -5709285  -5866279  -5692248  -5987976  -5561364  -6199891  -5877248  -6093691  -5680873  -5858909  -5703539  -5857600  -6071952  -5814321  -6520327  -5998218  -5833727  -5925061  -5956709  -5837473  -5799430  -5761042  -5799267  -5707891  -5687861  -5708715  -5670709  -5712109  -5706794  -5708739  -5672927  -5525879  -5460545  -5423176  -5369752  -5374903  -5441867  -5520424  -5446418  -5239279  -5293727  -5477788  -5476267  -5410224  -5404873  -5325545  -5342782  -5347685  -5382897  -5413642  -5410309  -5276376  -5239600  -5335509  -5309836  -5308533  -5234976  -5146133  -5211782  -5217285  -5278527  -5178806  -5353994  -5359479  -5317794  -5273636  -5244527  -5301509  -5312267  -5299158  -5171030  -5226273  -5297200  -5348558  -5242776  -5334806  -5396206  -5404794  -5401352  -5373085  -5270545  -5271630  -5302909  -5294073  -5226715  -5319248  -5240976  -5166230  -5302921  -5301327  -5301976  -5263994  -5303691  -5348533  -5356382  -5295206  -5258152  -5263909  -5271345  -5250503  -5220382  -5141455  -5152406  -5089685  -5019539  -5040315  -4995412  -4955788  -4941836  -4955182  -4909418  -4844321  -4879655  -4856521  -4850000  -4842218  -4818352  -4625442  -4578806  -4633255  -4572952  -4592909  -4573242  -4589721  -4586503  -4623933  -4561988  -4340824  -4389521  -4197952  -4201073  -4377582  -4123388  -4097897  -4349733  -4407612  -4411127  -4405558  -4397079  -4374758  -4321115  -4335364  -4280145  -4222000  -4090400  -4247836  -4221891  -4230218  -4203248  -4074321  -4128394  -3996267  -4045097  -4065412  -4104164  -4037194  -4030679  -4013727  -3877994  -3918952  -3910958  -3926358  -3908879  -3853370  -3787206  -3728170  -3741794  -3702806  -3666097  -3654115  -3618727  -3606679  -3523976  -3376721  -3003497  -2857394  -2517261  -2482685  -2708503  -2821897  -2786442  -2578333  -2755897  -2855879  -2775727  -2863442  -2766594  -2905273  -2893958  -2927958  -2894376  -2888848  -2864261  -2860745  -2885818  -2865479  -2859327  -1907497  -863776  -332558  -139176  -73224  -20667  999000  999000  999000  999000  999000  999000  999000  999000  999000  999000  999000  999000  999000  999000  999000  999000 
 -237485  -96830  -227370  -196327  -127539  -94248  -73885  -30299  999000  999000  999000  -41248  -99152  -130533  -142224  -162782  -185667  -212139  -1141418  -1855552  -2167994  -2384230  -2548618  -2673024  -2500236  -2201267  -1528376  -754600  -1205759  -342462  -43073  -132341  -192752  -158152  -63461  -27224  -87933  -656291  -1396352  -2391491  -3429230  -4271097  -4778764  -5320467  -6067012  -6776315  -7417327  -8195364  -8641606  -8228927  -7496976  -6723976  -5883921  -5573285  -5390812  -5211085  -5263606  -5360218  -5058812  -4890085  -4871242  -5108800  -4985927  -4953715  -4938945  -5126661  -5037521  -4939758  -5038806  -4883067  -5025782  -5247679  -5099824  -5744339  -5703982  -5562527  -5377964  -5235891  -5322048  -5339636  -5339442  -5400442  -5533994  -5444297  -5456236  -5680970  -5663818  -5542745  -5514794  -4993315  -5261915  -5719230  -5484667  -5574370  -5852503  -5817788  -5827121  -5898715  -6001279  -5880939  -5971048  -5959127  -5755933  -5795503  -5701521  -5663782  -5673848  -5645236  -5730618  -5612358  -5672406  -5688497  -5637242  -5708000  -5754667  -5782079  -5896455  -5365818  -4103594  -2507727  -1877818  -2108006  -4048800  -5637842  -6398109  -6324770  -6049588  -5784188  -5961630  -5919782  -5813600  -5811206  -5732509  -5675612  -5849715  -5778564  -5876061  -6556370  -5479964  -5259836  -5437582  -5491727  -5667588  -5656558  -5669915  -5667800  -5540024  -5556279  -5564552  -5519679  -5526921  -5603661  -5703612  -5606018  -5779406  -5773545  -5715139  -5615885  -5695964  -5659321  -5572776  -5461739  -5504061  -5554345  -5601770  -5540630  -5615418  -5621158  -5551388  -5792558  -5880085  -5705200  -5815636  -5777727  -5815503  -5741055  -5764806  -5745958  -5804061  -5677727  -5653691  -5947624  -5715576  -5740139  -5667206  -5783279  -5490533  -6116558  -5568770  -6070200  -5892921  -6004036  -5687042  -5572582  -5582830  -5571297  -6429848  -5967097  -5892352  -5989485  -5812327  -5698127  -5630455  -5693139  -5726097  -5724945  -5699230  -5665745  -5653248  -5551267  -5661073  -5719667  -5718939  -5627588  -5497861  -5267727  -5346485  -5406667  -5470988  -5545042  -5380442  -5109497  -5031461  -5034788  -5389418  -5394897  -5322242  -5388642  -5320085  -5361770  -5374139  -5396739  -5336982  -5249436  -5325303  -5276752  -5239855  -5258588  -5221958  -5205964  -5031503  -5250103  -5250297  -5209770  -5308976  -5216212  -5273279  -5264497  -5005727  -5274994  -5283630  -5295764  -5244430  -5108606  -5192885  -5249261  -5311479  -5362691  -5386024  -5377345  -5346800  -5332788  -5244721  -5270048  -5344224  -5419794  -5057303  -5348661  -5223333  -5154200  -5224624  -5177636  -5306115  -5304055  -5299679  -5317206  -5282982  -5282782  -5191212  -5197927  -5186370  -5206285  -5196024  -5167503  -5133061  -5098909  -5049109  -5043412  -5004442  -4983321  -4942988  -4935527  -4934473  -4825861  -4896030  -4857648  -4814879  -4796818  -4776333  -4648915  -4694364  -4698552  -4694248  -4645709  -4652485  -4645309  -4575091  -4601703  -4551624  -4530739  -4425776  -4479333  -4489648  -4442115  -4275939  -3996309  -4366618  -4407224  -4410758  -4386970  -4380345  -4378655  -4338861  -4301018  -4263079  -4233655  -4217697  -4246333  -4197406  -4228042  -4210630  -4157509  -4127267  -4068127  -3969303  -4101612  -4123000  -4099121  -4043709  -4011382  -3967430  -3950830  -3928158  -3942333  -3919970  -3889206  -3816291  -3762952  -3714121  -3672152  -3662636  -3654315  -3637770  -3608994  -3427279  -3224521  -2904200  -2853624  -2693042  -2376988  -2713000  -2689588  -2739200  -2777267  -2825836  -2770509  -2756418  -2838958  -2872679  -2884188  -2894048  -2906164  -2903806  -2867988  -2836024  -2825552  -2847503  -2831442  -2805745  -1851752  -974067  -388727  -228218  -105606  -34320  999000  999000  999000  999000  999000  999000  999000  999000  999000  999000  999000  999000  999000  999000  999000  999000 
 -442148  -195170  -257319  -220363  -106111  -84474  -60444  -12974  999000  999000  -26844  -74422  -123556  -140778  -156215  -178081  -211711  -348422  -974941  -1587956  -2189163  -2548170  -2648170  -2820252  -2900563  -2661837  -2074370  -1646570  -1425467  -1061296  -396050  -12103  -112833  -226548  -271252  -109119  -31452  -91081  -478237  -1111837  -2069126  -3000104  -3980015  -4633711  -5111422  -6096378  -6807519  -7444341  -8308719  -8615496  -8174037  -7543111  -6469467  -6000696  -5626733  -5425133  -5337385  -5256696  -5105689  -4818674  -4872252  -5137044  -5023222  -4884037  -4951296  -4940556  -4949778  -4860978  -4844133  -5021637  -5218956  -5325259  -5366511  -5098556  -4353259  -5196563  -5148911  -5127615  -5241800  -5262459  -5426741  -5538459  -5577474  -5456748  -5567326  -5691970  -5701000  -5623481  -5474593  -5324415  -5219822  -5184993  -5888533  -5623081  -5529548  -6023074  -5973474  -5885237  -5957459  -6001126  -5968785  -6006578  -5878415  -5793585  -5824156  -5830889  -5797941  -5738467  -5754400  -5664526  -5694022  -5695615  -5713141  -5764793  -5807067  -5849607  -5952007  -6046207  -5989726  -4400363  -2392326  -2845889  -3895800  -5944081  -6533807  -6328630  -6013311  -5931756  -5915504  -5854511  -5855363  -5698874  -5604800  -5824230  -5927185  -5894622  -6383296  -6961037  -5097244  -5593785  -5604741  -5538304  -5656548  -5659185  -5501504  -5634363  -5510541  -5517341  -5518956  -5596985  -5586733  -5546141  -5577837  -5725356  -5671385  -5838637  -5803237  -5680733  -5699104  -5667733  -5617059  -5556867  -5568200  -5625437  -5655733  -5601711  -5669770  -5701111  -5676689  -5700156  -5619200  -5686667  -5828200  -5794704  -5840889  -5782281  -5742259  -5783948  -5763741  -5744770  -5732837  -5958200  -5826052  -5563911  -5445126  -5903570  -5883719  -5811259  -5964467  -5560089  -5640393  -5927459  -5717163  -5722859  -5591081  -5691415  -6370333  -5365748  -5275785  -5712874  -5945719  -6169148  -6191326  -5721467  -6006422  -6320844  -5538822  -5742674  -5588126  -5347000  -5276696  -5597504  -5603274  -5520089  -5260363  -5380081  -5427407  -5457578  -5463067  -5447726  -5427674  -5356956  -5335578  -5213896  -5363289  -5355489  -5384081  -5325541  -5328985  -5324533  -5344578  -5292230  -5176556  -5258067  -5320593  -5322785  -5306785  -5274370  -5205474  -5290319  -5256830  -5281326  -5294733  -5276570  -5307422  -5234711  -5324333  -5298444  -5348207  -5298948  -5304704  -5293096  -5260126  -5269563  -5273333  -5279304  -5330748  -5369807  -5365237  -5348889  -5326370  -5313637  -5256615  -5325304  -5350400  -5258711  -4176556  -5338741  -5284089  -5283341  -5228319  -5234756  -5268563  -5294548  -5299904  -5257689  -5258319  -5217763  -5218148  -5229867  -5177970  -5215800  -5189400  -5166793  -5149081  -5120570  -5077185  -5064185  -4998474  -4984756  -4981459  -4953704  -4950044  -4925022  -4894741  -4919333  -4855148  -4804630  -4728526  -4698059  -4640081  -4676496  -4714348  -4701741  -4688215  -4649459  -4573326  -4588059  -4590163  -4571119  -4502281  -4491763  -4487030  -4489770  -4460859  -4373215  -4378437  -4395719  -4413689  -4385415  -4375896  -4369704  -4348400  -4293941  -4252644  -4272637  -4271274  -4259407  -4245956  -4242800  -4175385  -4170222  -4158126  -4135733  -4109689  -4125978  -4126104  -4133607  -4098793  -3986963  -4007289  -3866259  -3962311  -3968037  -3926756  -3878015  -3840178  -3793185  -3753519  -3731696  -3684333  -3658874  -3650926  -3593941  -3376637  -3110274  -2875133  -2811089  -2717948  -2373000  -2611578  -2669822  -2688044  -2693815  -2821770  -2714704  -2805800  -2843067  -2858844  -2831837  -2926867  -2892570  -2877407  -2860815  -2830585  -2782585  -2788452  -2793896  -2695289  -1665963  -1017474  -538511  -359630  -145726  -46115  999000  999000  999000  999000  999000  999000  999000  999000  999000  999000  999000  999000  999000  999000  999000  999000 
 -676036  -449479  -360036  -351370  -132988  -51989  -45131  999000  999000  -14433  -45391  -97867  -124691  -136230  -154527  -225024  -513273  -788315  -925067  -1403836  -2293636  -2706600  -2791570  -2881848  -2960691  -2967158  -2760933  -2503079  -2273588  -2008115  -625723  -332075  999000  -81115  -178949  -305248  -150455  -321745  -415964  -363297  -729727  -1320630  -2070073  -3218267  -4324988  -5276442  -5850109  -6737818  -7408473  -8095497  -8665570  -8636370  -7863545  -7008188  -6295776  -5675297  -5297176  -5074800  -4939582  -4899758  -4981236  -5088739  -5030321  -5081212  -5065503  -4669624  -4690279  -4758503  -4787152  -4924588  -5142073  -4974824  -4990582  -3954527  -4263073  -5089067  -5078364  -5190527  -5276764  -5299491  -5459067  -5515236  -5572455  -5562121  -5695067  -5848376  -5844030  -5762685  -5710770  -5547267  -5475836  -5426552  -5929273  -6053497  -5777533  -5488618  -5985436  -5813564  -5910679  -5941467  -5946752  -5998261  -5992436  -5801782  -5785606  -5772164  -5743770  -5858018  -5885273  -5771715  -5754333  -5722255  -5777145  -5849582  -5816630  -5913394  -5998770  -6032485  -6035230  -5185818  -3053412  -2448945  -3587115  -4270115  -5673764  -6174006  -5940933  -5799145  -5772806  -5738048  -5661467  -5551964  -5751909  -5823024  -5839097  -5914630  -7020594  -7150867  -5376218  -5705788  -5708255  -5668448  -5688533  -5684848  -5669242  -5625152  -5561624  -5532048  -5506976  -5538321  -5519194  -5518133  -5498927  -5596376  -5685764  -5796752  -5887345  -5785558  -5720709  -5696400  -5644558  -5664230  -5642673  -5664764  -5721261  -5740497  -5781600  -5793776  -5777121  -5806939  -5707048  -5579176  -5722139  -5733915  -5856091  -5690958  -5794242  -5751582  -5819800  -5747667  -5737109  -5849273  -5935285  -6044485  -5799794  -5946194  -5848097  -6112073  -5690964  -5326285  -5573709  -5888455  -5748382  -5754127  -5611788  -5632079  -6023897  -5773424  -6142242  -6067139  -6183200  -5921630  -5928800  -5830945  -5759115  -5505376  -5353145  -5350970  -5518994  -5769806  -6084927  -5584412  -5627158  -5459036  -5365442  -5427267  -5328406  -5485048  -5494479  -5377479  -5375758  -5291236  -5264630  -5242921  -5181715  -5240770  -5254042  -5224927  -5236376  -5220800  -5247673  -5241770  -5227812  -5205479  -5250503  -5209552  -5186418  -5198509  -5160715  -5146964  -5316224  -5226164  -5213988  -5146552  -5226279  -5263182  -5264697  -5262061  -5204448  -4994709  -5178036  -5262655  -5311327  -5194418  -4975424  -5287770  -5344285  -5390867  -5343618  -5391582  -5324873  -5239915  -5233794  -5285273  -5303630  -5415285  -5405618  -5298412  -5285570  -5262012  -5142691  -5273891  -5286885  -5220891  -5272236  -5252133  -5205152  -5183067  -5162733  -5207824  -5174079  -5189279  -5182176  -5169691  -5144406  -5127297  -5099885  -5072255  -5035836  -5021703  -4990388  -4985212  -4946885  -4972364  -4949770  -4936794  -4840794  -4834212  -4773752  -4785739  -4749655  -4723885  -4685570  -4613382  -4662618  -4643121  -4620006  -4603133  -4599461  -4570703  -4487012  -4489085  -4456733  -4487000  -4493800  -4375509  -4256964  -4352691  -4399891  -4377061  -4367927  -4370709  -4361055  -4304582  -4217267  -4293061  -4299224  -4285012  -4256958  -4236430  -4188721  -4240176  -4186061  -4172061  -4180091  -4175345  -4107388  -4070630  -4145570  -4033909  -4020370  -3979073  -3956576  -3979121  -3925636  -3915648  -3883848  -3738855  -3723230  -3719461  -3676709  -3636655  -3633655  -3479642  -3255606  -2921412  -2824200  -2741030  -2712848  -2422982  -2498836  -2586509  -2703830  -2768745  -2824079  -2836248  -2821497  -2852170  -2853418  -2922158  -2901055  -2893036  -2885897  -2858703  -2812739  -2752261  -2706236  -2725218  -2559133  -1742873  -1163170  -575788  -383285  -179745  -52772  999000  999000  999000  999000  999000  999000  999000  999000  999000  999000  999000  999000  999000  999000  999000  999000 
 -680345  -500158  -381097  -456552  -159391  -93177  -53401  -5115  999000  -26687  -65630  -104285  -120024  -131370  -158533  -253364  -758812  -948242  -1227430  -1925321  -2676394  -2915345  -2943648  -2998582  -3037915  -3097945  -3119182  -3094994  -3111782  -2712418  -1727618  -1097304  -97718  -95007  -64944  -166125  -501951  -605018  -344230  -269067  -310079  -558503  -806212  -1803085  -2999855  -3906970  -4570533  -5282303  -6142091  -6843994  -7928073  -8842394  -8421873  -7602715  -6675915  -6006988  -5476339  -5189248  -5014952  -4880182  -4934752  -4979406  -4937424  -5010764  -5054036  -4815933  -5060679  -5141333  -5363800  -5052848  -4975709  -4974194  -4906939  -4413642  -4987739  -4904212  -5054170  -5198170  -4993594  -5343824  -5555364  -5633473  -5610188  -5694139  -5764673  -5811867  -5866964  -5856752  -5835188  -5750224  -5530733  -5489994  -5578224  -5897570  -5975152  -5899461  -5723048  -5500279  -6081685  -6050467  -5872164  -5907370  -5965982  -5694818  -5616352  -5560327  -5546194  -5536406  -5724455  -5739303  -5749182  -5815964  -5825048  -5862655  -5982497  -6050576  -5768048  -5929642  -5984648  -5316461  -2721297  -3359024  -5160691  -5939806  -6074709  -5964588  -5752467  -5815764  -5735564  -5615139  -5528988  -5609279  -5671479  -5705152  -5695721  -5836194  -7140497  -6622345  -5604891  -5695297  -5605667  -5582794  -5626412  -5657879  -5586909  -5617042  -5469055  -5522067  -5539370  -5568000  -5514352  -5570564  -5433667  -5557691  -5678115  -5522479  -5793297  -5882539  -5848800  -5790400  -5746279  -5712545  -5699267  -5670715  -5751248  -5713533  -5844552  -5762509  -5748370  -5731879  -5751394  -5759055  -5699315  -5696206  -5867570  -5740212  -5708333  -5730612  -5829321  -5832976  -5818242  -5841436  -5888527  -5949545  -5678000  -5925188  -5917824  -5943285  -5611285  -5820127  -5680327  -5664455  -5752630  -5790770  -5559958  -5526091  -5925145  -5548788  -5724418  -5568194  -5605309  -5759824  -5583806  -5602739  -5290176  -5348776  -5321709  -5543818  -5774624  -5621539  -5495255  -5321879  -5413073  -5376339  -5411097  -5410345  -5405455  -5457891  -5405139  -5419352  -5401394  -5229903  -5197909  -5183297  -5181061  -5281436  -5217309  -5161794  -5206933  -5253327  -5200442  -5194067  -5103297  -5127600  -5165376  -5211673  -5213618  -5170606  -5149939  -5076715  -5267964  -5225570  -5109618  -5217073  -5245952  -5258988  -5100861  -5268521  -5127939  -5281642  -5268570  -5294048  -5271345  -5294333  -5261448  -5237218  -5331061  -5361042  -5318424  -5230418  -5235582  -5210194  -5299121  -5285788  -5216018  -5261061  -5258400  -5208733  -5253103  -5235745  -5224564  -5273303  -5251891  -5215655  -5184115  -5151667  -5231358  -5245648  -5166206  -5163194  -5204097  -5192667  -5164303  -5146527  -5135061  -5132970  -5128352  -5099521  -5064600  -5021770  -4985733  -4962345  -4925358  -4901012  -4881745  -4872648  -4826212  -4799721  -4874170  -4824770  -4637988  -4661303  -4680964  -4616024  -4642564  -4644685  -4630194  -4623933  -4608400  -4578406  -4575139  -4524103  -4498412  -4501679  -4475285  -4462812  -4419582  -4378915  -4378782  -4410648  -4388442  -4372164  -4370848  -4333309  -4302903  -4305964  -4314091  -4260733  -4262485  -4199564  -4240564  -4218636  -4192242  -4210388  -4212139  -4202564  -4156000  -4151739  -4125127  -4043121  -3992291  -3996194  -3992873  -3964327  -3957848  -3885103  -3868321  -3770194  -3748764  -3584091  -3594879  -3462158  -3523758  -3286764  -3172752  -2888006  -2822133  -2713473  -2548261  -2422515  -2426115  -2652503  -2668612  -2748455  -2804388  -2819206  -2795727  -2825752  -2863073  -2901073  -2890158  -2903879  -2866200  -2822133  -2779745  -2709455  -2608176  -2621448  -2524830  -1699539  -1341200  -608679  -394370  -167024  -53450  999000  999000  999000  999000  999000  999000  999000  999000  999000  999000  999000  999000  999000  999000  999000  999000 
 -606074  -455970  -408741  -580526  -100846  -126133  -87607  -35391  -27111  -44785  -78215  -106896  -116141  -126459  -156111  -277252  -696030  -808178  -1129711  -2265415  -3000215  -3076474  -3079089  -3091822  -3126422  -3172296  -3178437  -3179474  -3187948  -2790822  -2119815  -1930874  -1000451  -306533  -288289  -49074  -755585  -365170  -206859  -341000  -479652  -486985  -433496  -850356  -1453200  -2240593  -3065407  -4207348  -5289296  -5886726  -6827911  -7507548  -7993007  -8274615  -7294170  -6490230  -5913941  -5322926  -5043719  -4958748  -4810800  -4884807  -4926985  -4728948  -4591963  -4856756  -5342948  -5150496  -4959600  -4994844  -4952422  -4833985  -4785837  -4260252  -4902111  -4890793  -5187178  -5157956  -5193200  -5361644  -5555985  -5605393  -5684296  -5751148  -5703274  -5789393  -5752548  -5748541  -5804467  -5806111  -5661452  -5685963  -5318096  -5655659  -5400985  -5599763  -6083244  -5826044  -5822644  -6162822  -6010193  -5711141  -5863896  -5649741  -5414200  -5639607  -5606170  -5564311  -5675541  -5776393  -5890644  -5852985  -5854363  -5769067  -5973496  -6410015  -5687370  -5762637  -5833511  -5283667  -2001030  -4259881  -5907119  -6075644  -6107356  -5988526  -5834215  -5793141  -5808852  -5623704  -5525696  -5599430  -5509281  -5524815  -5875119  -7016985  -6633548  -5860948  -5802711  -5672393  -5560015  -5556778  -5575326  -5515948  -5563978  -5582200  -5624237  -5555319  -5585007  -5572970  -5531015  -5529037  -5523311  -5530163  -5507385  -5706378  -5788941  -5773793  -5836778  -5837326  -5435385  -5856852  -5701281  -5599148  -5779815  -5819104  -5871881  -5744074  -5668830  -5658259  -5580800  -5785526  -5691156  -5564933  -5637993  -5675733  -5836793  -5781259  -5784978  -5801407  -5873393  -5891911  -5909793  -5926852  -5775726  -5852630  -5803570  -5721459  -5798933  -5964459  -5486052  -5667178  -5729074  -5603304  -5687252  -5727459  -5862815  -5540378  -5516919  -5585148  -5550400  -5379963  -5798111  -5413081  -5328607  -5305896  -5636778  -5553807  -5548141  -5504881  -5330178  -5050274  -5273741  -5473156  -5322696  -4992874  -5302719  -5503674  -5293474  -5425356  -5397867  -5278615  -5269467  -5193519  -5148319  -5255178  -5190304  -5096422  -5172393  -5227644  -5165881  -5009415  -5072356  -5093393  -5156741  -5176815  -5162652  -5170600  -5143356  -5111985  -5172607  -5196874  -5256333  -5101489  -5299215  -5321326  -5266881  -5265237  -5236800  -5268193  -5269022  -5258674  -5242459  -5246437  -5298785  -5285696  -5232681  -5344407  -5269259  -5233807  -5175741  -5186422  -5217770  -5215311  -5233378  -5180519  -5178215  -5192956  -5209015  -5252037  -5189222  -5211363  -5269111  -5227637  -5256252  -5208556  -5351044  -5046674  -5275296  -5205496  -5220674  -5192541  -5175007  -5129230  -5117681  -5114030  -5114341  -5088578  -5057356  -5013948  -4986763  -4939696  -4901481  -4863985  -4816919  -4810244  -4807215  -4815844  -4864059  -4841941  -4794719  -4785126  -4664030  -4668526  -4649444  -4642348  -4629141  -4626911  -4603607  -4588600  -4568874  -4556785  -4522096  -4487644  -4485896  -4452037  -4455452  -4253378  -4241415  -4399422  -4387504  -4376859  -4360748  -4346281  -4335356  -4319452  -4328570  -4274341  -4278763  -4235067  -4207163  -4251815  -4215052  -4228889  -4228370  -4237015  -4182785  -4153170  -4132941  -4103178  -4046430  -4032141  -3978659  -3970652  -3930126  -3833393  -3799163  -3743407  -3702015  -3575452  -3609244  -3629541  -3449896  -3297148  -3115489  -2849800  -2729511  -2704807  -2424333  -2578644  -2377644  -2545067  -2659726  -2726489  -2769807  -2795489  -2814919  -2807674  -2875615  -2877711  -2864407  -2877859  -2843933  -2797926  -2736126  -2660533  -2555430  -2471667  -2389800  -1762844  -1504385  -645593  -350481  -147711  -45972  999000  999000  999000  999000  999000  999000  999000  999000  999000  999000  999000  999000  999000  999000  999000  999000 
 -666824  -495358  -527945  -672424  -287061  -140976  -107079  -68200  -47745  -57558  -80691  -106776  -112988  -116885  -144285  -278915  -661994  -886170  -1551515  -2702382  -3070339  -3155764  -3186000  -3191394  -3174824  -3146024  -3115830  -3130212  -3180721  -3061467  -2959139  -2868927  -2389745  -1034248  -555867  -593503  -1166776  -511200  -133450  -102281  -448679  -801709  -861897  -926897  -829012  -1088800  -1641388  -2435030  -3734691  -5083576  -6137812  -6667752  -7414703  -8284364  -8137921  -7135097  -6365818  -5698952  -5206800  -5002564  -4783121  -4961691  -4966012  -4780230  -4642558  -4627242  -4700158  -4565127  -4824400  -4845539  -4906679  -4883570  -4851873  -4978921  -4879285  -4927182  -4943333  -5159048  -5268770  -5427539  -5505685  -5574933  -5678248  -5718473  -5719764  -5741006  -5713782  -5736606  -5776479  -5693788  -5594388  -5686461  -5195424  -5724491  -5028545  -5467279  -5871473  -5904285  -6129170  -6099236  -5884188  -5986655  -5956139  -6041133  -6013909  -5847024  -5893218  -5978709  -5975273  -6020467  -5924970  -5881085  -5949903  -5899570  -6165588  -6596194  -4774691  -5516145  -5651436  -3678970  -1689794  -4706945  -5748727  -5990473  -6036691  -5950812  -5807321  -5798091  -5774988  -5449685  -5586030  -5579606  -5371794  -5522085  -6266636  -6586079  -5734145  -5761455  -5596545  -5432012  -5548600  -5615842  -5605594  -5688982  -5667661  -5776127  -5720109  -5648673  -5616236  -5531509  -5491327  -5583733  -5565885  -5548152  -5560345  -5758945  -5824909  -5702376  -5720691  -5734218  -5597915  -5652273  -5666958  -5620812  -5746733  -5833097  -5739764  -5770570  -5792564  -5768388  -5758224  -5766867  -5733824  -5693406  -5667467  -5654891  -5694661  -5807158  -5740836  -5803285  -5867382  -5923758  -5809103  -5839515  -5946600  -5905261  -5684358  -5506576  -5684127  -5705188  -5622358  -5699212  -5544939  -5583800  -5668273  -5645376  -5712085  -5437509  -5517667  -5639345  -5568491  -5353267  -5959764  -5655061  -5641394  -5551376  -5642418  -5696412  -5530461  -5371588  -5188388  -5222158  -5497594  -5607533  -5414503  -5384267  -5267418  -5393691  -5418921  -5284024  -5347691  -5252303  -5221430  -5214370  -5161533  -5231933  -5165933  -5126382  -5172127  -5122515  -5154061  -5099321  -5042412  -5013461  -5062503  -5149303  -5116115  -5112897  -5112558  -5172279  -5169594  -5186636  -5203394  -5198339  -5226388  -5073012  -5305503  -5207745  -5182758  -5233382  -5257648  -5070503  -5242733  -5283933  -5240370  -5312285  -5281497  -5290570  -5246073  -5263782  -5232879  -5238097  -5256915  -5170473  -5183727  -5218624  -5183909  -5182600  -5212964  -5243473  -5241782  -5320182  -5317624  -5292152  -5259703  -5288733  -5260497  -5227873  -5217285  -5243661  -5255691  -5174958  -5166594  -5120079  -5107394  -5093588  -5084527  -5064000  -5039455  -5001345  -4967685  -4920158  -4851133  -4817770  -4803733  -4802461  -4816515  -4806042  -4781267  -4785109  -4783121  -4733503  -4689079  -4670703  -4647448  -4630521  -4621958  -4604885  -4587703  -4581418  -4577127  -4556394  -4517842  -4480739  -4481285  -4452994  -4431721  -4454170  -4411891  -4381848  -4372079  -4372824  -4356679  -4344806  -4331358  -4300600  -4313339  -4279558  -4270509  -4145648  -4290176  -4261958  -4243806  -4241758  -4231709  -4201721  -4166109  -4154030  -4161776  -4017036  -3995994  -4012648  -4005158  -3905176  -3864048  -3811339  -3767679  -3760642  -3717242  -3577176  -3614364  -3399345  -2907515  -3168691  -3053485  -2750612  -2579176  -2447024  -2665964  -2600558  -2275618  -2499109  -2693339  -2706352  -2765479  -2777115  -2775739  -2807982  -2871242  -2893776  -2859545  -2840812  -2816818  -2778364  -2709994  -2633733  -2513388  -2375109  -2218703  -1722776  -1483230  -570400  -220048  -127612  -52888  999000  999000  999000  999000  -194  999000  999000  999000  999000  999000  999000  999000  999000  999000  999000  999000 
 -971794  -658261  -681176  -761152  -520085  -164727  -116303  -62303  -34448  -39952  -74842  -100473  -103279  -104642  -126358  -248333  -788061  -1733170  -2580630  -3053073  -3152345  -3213327  -3218042  -3266279  -3208436  -3208812  -3249873  -3239079  -3264485  -3345230  -3321055  -3093467  -2849358  -1406685  -1156455  -1608642  -1987000  -1439382  -633109  -83415  -107167  -781735  -1366139  -1152679  -769733  -1201709  -1173352  -1092055  -1820879  -3370412  -4857552  -5788382  -6875206  -8045485  -8344139  -7927430  -6830115  -6146327  -5498794  -5061230  -4917309  -4932012  -4839297  -4803012  -4721976  -4757885  -4506364  -4753309  -4750339  -4860012  -4829939  -4715012  -4765903  -4831673  -4831327  -4988018  -4945539  -5100642  -5105636  -5419861  -5476370  -5505061  -5616715  -5632267  -5708194  -5707733  -5707552  -5693721  -5709339  -5625600  -5639612  -5737873  -5557970  -5642818  -5393794  -5501236  -5705412  -5724352  -6106552  -5912782  -5829721  -5951879  -5937121  -5852721  -5829721  -5681145  -5669158  -5675345  -5759461  -5892703  -5974552  -5929848  -5904473  -5958345  -6217309  -6185103  -3131248  -3334055  -4516739  -4013400  -2702455  -4740624  -5694085  -5946745  -5879085  -5786752  -5737545  -5788042  -5567255  -5596097  -5425152  -5508339  -5613297  -6056636  -6280200  -6100588  -5275158  -5704285  -5554909  -5435212  -5291048  -5541958  -5646121  -5639745  -5669867  -5886697  -5757709  -5736824  -5591297  -5498030  -5609000  -5580073  -5533885  -5575333  -5484794  -5610079  -5756891  -5813352  -5842036  -5621715  -5659533  -5671467  -5556121  -5498236  -5663315  -5774267  -5824691  -5804382  -5871145  -5807170  -5593170  -5584309  -5729091  -5661879  -5676442  -5678800  -5657006  -5704036  -5826806  -5756945  -5778339  -5818382  -5739679  -5809848  -5750685  -5921642  -5650527  -5515939  -5824424  -5724673  -5597939  -5643885  -5716176  -5776800  -5603321  -5559358  -5543430  -5529188  -5508945  -5653182  -5524691  -5460921  -5486673  -5678933  -5416158  -5608739  -5500594  -5476982  -5439018  -5425976  -5385824  -5541873  -5442485  -5340739  -5355521  -5402588  -5364958  -5333618  -5441236  -5304909  -5362485  -5262297  -5214418  -5199012  -5174327  -5230794  -5137024  -5109976  -5104352  -5101376  -5067891  -5116721  -5047776  -5016170  -5072006  -5079442  -5114485  -5087115  -5094248  -5191139  -5179776  -5162206  -5191867  -5190727  -5104291  -5184200  -5191103  -5177085  -5157576  -5170673  -5219824  -5297400  -5277188  -5271503  -5257073  -5339521  -5301612  -5277588  -5269352  -5276661  -5301721  -5214024  -5303861  -5188333  -5173242  -5212527  -5232012  -5235315  -5252121  -5262285  -5251309  -5244061  -5337691  -5332630  -5242303  -5261667  -5156073  -5220800  -5133503  -5210042  -5164818  -5124618  -5131182  -5078097  -5073915  -5069279  -5059152  -5038315  -5025933  -4980909  -4953048  -4908721  -4858430  -4823776  -4805558  -4797182  -4798848  -4797564  -4789248  -4761218  -4735006  -4735048  -4714200  -4675164  -4650958  -4636188  -4620491  -4600261  -4580691  -4573945  -4560424  -4544327  -4515121  -4487721  -4453491  -4464139  -4440782  -4442861  -4423521  -4374606  -4365321  -4354709  -4343194  -4333352  -4318121  -4318024  -4331497  -4304303  -4262897  -4249545  -4175648  -4253497  -4228491  -4249176  -4232739  -4174836  -4153255  -4141085  -4166994  -4141418  -3832479  -3958370  -3931109  -3901394  -3857430  -3818836  -3766594  -3730388  -3747018  -3687424  -3529842  -3274121  -3289782  -3159909  -3138158  -2661927  -2691297  -2734661  -2431152  -2241667  -1974327  -2418339  -2399788  -2711279  -2758291  -2775145  -2755467  -2819606  -2863352  -2857152  -2831879  -2816485  -2811291  -2760024  -2708958  -2638824  -2519879  -2283873  -2025297  -1660121  -1324709  -486152  -165194  -120315  -54509  999000  999000  999000  999000  -227  999000  999000  999000  999000  999000  999000  999000  999000  999000  999000  999000 
 -1287919  -938030  -926822  -795548  -632948  -156689  -124193  -61985  -22000  -32667  -74978  -83311  -125311  -98326  -99907  -212393  -832444  -2215378  -3047096  -3131800  -3188556  -3207393  -3254770  -3250437  -3234296  -3256178  -3244467  -3268911  -3268289  -3276748  -3323037  -2930230  -2751704  -3093074  -2375378  -1950667  -2900193  -2249119  -1243533  -785164  -148320  -173210  -1240422  -1796822  -1892000  -2100696  -1480444  -616363  -1380141  -3005748  -4312437  -4918741  -6326778  -7283637  -7667437  -8037007  -7596881  -6635570  -5752178  -5210830  -5033193  -4949741  -4890059  -4814607  -4695007  -4552015  -4741652  -4816430  -4921578  -4920037  -4962830  -5001133  -4932126  -4871230  -4874252  -5070889  -5066237  -5275896  -5281896  -5352600  -5382104  -5425570  -5540933  -5637563  -5601837  -5651496  -5746852  -5726637  -5683156  -5656644  -5657185  -5747504  -5588807  -5595133  -5634467  -5633052  -5627859  -5828667  -5693815  -5466444  -5812044  -5875585  -5900993  -5635585  -5687570  -5689919  -5631770  -5692526  -5832296  -5980667  -6043644  -6008230  -5971348  -6103496  -6189867  -6185681  -4269889  -1703548  -1452148  -2306978  -4754178  -5475311  -5817489  -5964719  -5873104  -5722074  -5667119  -5758244  -5658889  -5750689  -5687119  -5570444  -5726748  -6384911  -5651748  -5728356  -5678104  -5550926  -5574393  -5521733  -5424437  -5675119  -5670156  -5660837  -5742563  -5848563  -5780407  -5679148  -5610726  -5660467  -5578067  -5508037  -5549341  -5518348  -5458941  -5634830  -5705933  -5781785  -5730556  -5606022  -5681156  -5645244  -5545111  -5485185  -5595533  -5488874  -5635896  -5673037  -5734348  -5797385  -5715600  -5718304  -5562815  -5590896  -5707726  -5825793  -5790400  -5803896  -5740837  -5736170  -5744252  -5737141  -5749504  -5799163  -5896326  -5759156  -5672311  -5662252  -5772096  -5503244  -5551052  -5585815  -5564141  -5608378  -5535474  -5426007  -5269963  -5717111  -5477644  -5594630  -5515356  -5608578  -5635170  -5564385  -5337970  -5646615  -5601785  -5528193  -5582770  -5508037  -5323037  -5415711  -5425859  -5444741  -5405896  -5274044  -5485548  -5388896  -5287630  -5408133  -5378511  -5293941  -5197867  -5278156  -5231741  -5142593  -5091319  -5070326  -5062533  -5048474  -5049319  -5031630  -4856593  -4930193  -5086319  -5162600  -5104756  -5079141  -5078852  -5137600  -5177163  -5113815  -5063230  -5150304  -5143111  -5176052  -5164511  -5170822  -5184259  -5197037  -5226104  -5233548  -5264363  -5271956  -5318452  -5311126  -5236119  -5267007  -5289637  -5346904  -4904852  -5274881  -5227370  -5206015  -5150089  -5209793  -5215267  -5296844  -5242770  -5228178  -5231556  -5143807  -5197593  -5282348  -5223741  -5211074  -5106763  -5127089  -5078837  -5112637  -5147785  -5115570  -5133874  -5052800  -5033237  -5041719  -5031193  -5017067  -5003185  -4975741  -4938444  -4900778  -4873178  -4837415  -4781400  -4785585  -4802215  -4782704  -4768719  -4744333  -4731837  -4719681  -4705415  -4678830  -4642200  -4628163  -4612430  -4595496  -4576941  -4560356  -4537348  -4521867  -4493659  -4481719  -4457311  -4425393  -4446156  -4409430  -4396956  -4342837  -4361600  -4335622  -4339259  -4323133  -4317763  -4310044  -4298326  -4298185  -4278074  -4088607  -4234504  -4232481  -4219948  -4240141  -4238348  -4202763  -4175178  -4157393  -4159756  -4059015  -3712941  -3916785  -3913578  -3940881  -3910015  -3783459  -3593859  -3755400  -3783481  -3662207  -3480459  -3377007  -3336393  -3131793  -3112104  -2590422  -2763637  -2811978  -1750393  -1929985  -1750341  -2220674  -2633726  -2738400  -2757385  -2717326  -2744341  -2816904  -2840793  -2836615  -2806704  -2783570  -2786119  -2756852  -2712756  -2656993  -2565637  -2326926  -1887519  -1597726  -1153163  -397807  -148919  -104644  -43276  999000  999000  999000  999000  999000  999000  999000  999000  999000  999000  999000  999000  999000  999000  999000  999000 
 -1466842  -1395624  -1130079  -745133  -501545  -107937  -145994  -61261  -19917  -27922  -65291  -62806  -124830  -87291  -59838  -177588  -935552  -2483176  -2829352  -2929927  -3132291  -3132406  -3223879  -3250842  -3270139  -3275758  -3300600  -3305103  -3284903  -3276279  -3334994  -3135061  -3280745  -3383261  -3308206  -3021097  -3156042  -3140461  -2804552  -1906945  -1088526  -258847  -315438  -1319461  -2285503  -2796382  -2752309  -2654964  -3694842  -3564448  -2844497  -2861376  -4154673  -5893897  -6724388  -7436006  -7804370  -7266988  -6100255  -5474061  -5157739  -5046218  -4893291  -4823255  -4727600  -4639824  -4840315  -4819158  -4896448  -4872667  -4962218  -4755533  -4888976  -4839236  -4935606  -5004285  -5117170  -5309976  -5225406  -5187339  -5272279  -5321982  -5507067  -5641400  -5640800  -5638321  -5662073  -5633442  -5697006  -5685788  -5610685  -5759697  -5696206  -5658552  -5678873  -5727976  -5780127  -5749903  -5770261  -5622933  -5856442  -5914145  -5922861  -5826667  -5754879  -5684873  -5689685  -5808200  -5904103  -5980661  -6028321  -6046430  -6089370  -6175297  -6208212  -6127000  -4726648  -2211079  -1421358  -3136194  -5854097  -6132685  -6054588  -5998915  -6050636  -5831685  -5701770  -5800327  -5816885  -5829103  -5801758  -5828958  -5813667  -6148109  -5598715  -5358448  -5763012  -5639697  -5612261  -5676473  -5370370  -5615103  -5626491  -5662291  -5716230  -5689764  -5779309  -5745855  -5689097  -5443424  -5552842  -5557594  -5526630  -5533309  -5568145  -5706127  -5713933  -5703533  -5671030  -5648345  -5530624  -5469085  -5534824  -5458406  -5525515  -5675576  -5610806  -5652836  -5839073  -5978497  -5638485  -5714636  -5576618  -5656133  -5745194  -5866139  -5755691  -5746073  -5851473  -5779200  -5772273  -5760497  -5797818  -5815576  -5816061  -5777261  -5752842  -5626873  -5662297  -5676406  -5528467  -5572194  -5552255  -5606230  -5534582  -5497921  -5445291  -5587800  -5542709  -5536364  -5553515  -5508521  -5596333  -5602200  -5558612  -5557576  -5474285  -5533964  -5501103  -5585873  -5484485  -5462376  -5403291  -5443509  -5287939  -5133836  -5388242  -5339200  -5378836  -5420309  -5269885  -5244879  -5191061  -5325927  -5258394  -5105933  -5135636  -5073958  -5042315  -4983648  -4966642  -4973655  -4866818  -4913691  -4589303  -4864800  -5078758  -5067345  -4962109  -5063333  -5111806  -5006612  -5089733  -5145533  -4662048  -5044545  -5050309  -5164164  -5214048  -5204418  -5168873  -5217800  -5212127  -5270436  -5307448  -5258770  -5215503  -5325576  -5309764  -5284461  -5118345  -5306909  -5220624  -5182552  -5204933  -5240382  -5275545  -5290800  -5227036  -5227848  -5234909  -4997764  -5219436  -5219891  -5101824  -5148097  -5115709  -5101812  -5096036  -5146648  -5082006  -5091467  -5075406  -5017891  -5016770  -5026691  -5005818  -5003006  -4984382  -4962503  -4935497  -4899818  -4865667  -4827697  -4806715  -4779436  -4772497  -4772097  -4766467  -4742248  -4728903  -4709976  -4696776  -4684133  -4640891  -4627939  -4611697  -4593012  -4571855  -4548788  -4531145  -4509006  -4487558  -4477182  -4453685  -4445497  -4422267  -4400552  -4387570  -4375770  -4358703  -4352958  -4320473  -4322048  -4303648  -4290461  -4276358  -4186418  -4255764  -4235764  -4261697  -4261806  -4214461  -4216436  -4227764  -4205370  -4181673  -4173576  -4182770  -3495982  -3632206  -3863036  -3932012  -3917479  -3927315  -3572842  -3682267  -3760200  -3824570  -3497842  -3416388  -3412788  -3250103  -3198733  -3044570  -2790109  -2849273  -2889485  -1603133  -2381679  -2201770  -2273758  -2588382  -2716697  -2741103  -2755364  -2764145  -2808424  -2814230  -2794655  -2774448  -2758442  -2740218  -2744867  -2730182  -2676861  -2587788  -2512552  -2059103  -1576752  -1193067  -653430  -220200  -84418  -18752  -2000  -1310  -1444  -1591  999000  999000  999000  999000  999000  999000  999000  999000  999000  999000  999000  999000 
 -1500097  -1461321  -1125073  -809364  -596927  -100809  -182618  -69199  999000  -9719  -40388  -47018  -75388  -63161  -25400  -152958  -1293855  -2618448  -2927115  -3084952  -3087709  -3240303  -3295485  -3271182  -3260830  -3288194  -3305727  -3336788  -3299958  -3252727  -3285327  -3225194  -3313855  -3340976  -3403776  -3378255  -3312048  -3169830  -3184200  -2715103  -2302909  -944370  -866752  -224164  -1222867  -2387048  -2923279  -3247545  -2928370  -2515861  -2411915  -2584879  -3345345  -4318412  -5262733  -6067667  -7109285  -7651164  -6703721  -5820200  -5422885  -5095879  -4823921  -4675127  -4816564  -4836315  -4818279  -4878309  -4847982  -4771600  -4728497  -4924285  -4888970  -4882406  -4989679  -5058733  -5178273  -5174248  -5212345  -5224394  -5246727  -5363242  -5530321  -5618806  -5664564  -5582364  -5546255  -5636897  -5608891  -5701788  -5673297  -5705400  -5750352  -5634182  -5716461  -5771364  -5908267  -5891152  -5888321  -5788236  -5913752  -5883145  -5856406  -5956891  -5818339  -5836776  -5767030  -5839315  -5884509  -6000455  -6078642  -6154321  -6115533  -6191406  -6257061  -6251212  -5391818  -3234964  -2015000  -4592733  -6175618  -6320994  -6251152  -6129455  -6033733  -5968030  -5853382  -5769642  -5866891  -5875200  -6045612  -5976691  -5844733  -5890818  -5797873  -5640673  -5778715  -5763267  -5616806  -5689382  -5319285  -5700558  -5683418  -5607133  -5678073  -5580412  -5690994  -5649339  -5610867  -5644873  -5552491  -5629527  -5505206  -5513376  -5529139  -5441685  -5551758  -5694455  -5554127  -5572461  -5381164  -5430273  -5345206  -5624139  -5450200  -5388715  -5706364  -5498921  -5861273  -5602285  -5610255  -5665024  -5646539  -5554770  -5669164  -5693364  -5779424  -5743448  -5833315  -5767970  -5763012  -5742103  -5852467  -5814655  -5792824  -5737085  -5551527  -5471794  -5458727  -5585467  -5641467  -5620545  -5504776  -5624394  -5531667  -5413491  -5497758  -5548285  -5736903  -5591861  -5507139  -5488794  -5588630  -5605812  -5595424  -5579812  -5558527  -5504618  -5509236  -5518721  -5378255  -5391909  -5337939  -5325255  -5357424  -5223370  -5358358  -5236582  -5301485  -5268030  -5254909  -5113582  -5184042  -5315194  -5197952  -5112709  -5105315  -5055739  -5049442  -5048909  -4965145  -4924552  -4933564  -4784503  -5085345  -5064388  -5098339  -5082630  -5079285  -5159612  -5099170  -4937394  -5086455  -5133709  -5092255  -5040042  -5121042  -5152612  -5168382  -5177624  -5200133  -5145594  -5196648  -5295521  -5248564  -5247873  -5253394  -5337430  -5349412  -5302879  -5279497  -5263497  -5211491  -5196467  -5193533  -5224327  -5243648  -5303594  -5181636  -5261891  -5252958  -5301933  -5279897  -5171970  -5258194  -5194824  -5039867  -5094394  -5110606  -5169824  -5094358  -5102067  -5109364  -5022279  -5013473  -4999158  -4986588  -4983673  -4968594  -4955467  -4929964  -4902194  -4872715  -4842673  -4818255  -4791164  -4789685  -4769164  -4752073  -4726745  -4703479  -4694685  -4695733  -4668988  -4653158  -4632630  -4595848  -4580630  -4555709  -4531200  -4510976  -4496467  -4483794  -4467455  -4451303  -4431267  -4421727  -4400873  -4381170  -4369370  -4340303  -4325352  -4307170  -4297406  -4290333  -4279521  -4268855  -4249230  -4250667  -4234424  -4249800  -4244867  -4221370  -4195273  -4207764  -4208745  -4203715  -4134558  -4133418  -4146515  -3985242  -3836861  -3918303  -3910691  -3796915  -3770770  -3869509  -3820776  -3768412  -3525236  -3372394  -3412164  -3245576  -3169939  -2964345  -2758576  -2931848  -2737055  -1533715  -2261612  -2475752  -2261830  -2481309  -2684994  -2733382  -2777236  -2792697  -2814455  -2783236  -2772727  -2739212  -2758618  -2727982  -2726036  -2787612  -2677824  -2579448  -2426606  -2071218  -1763194  -1280218  -940018  -219909  -63739  -7390  -1486  -1833  999000  999000  999000  999000  999000  999000  999000  999000  999000  999000  999000  999000  999000  999000 
 -1291919  -1300022  -1142030  -848215  -688244  -150607  -207474  -80894  999000  999000  -25023  -34378  -40933  -19793  -36884  -463104  -2171296  -2734030  -2768015  -2952422  -3232881  -3326378  -3292852  -3243489  -3227585  -3244481  -3263281  -3296511  -3309185  -3308504  -3310570  -3354867  -3317770  -3366533  -3366096  -3381333  -3297059  -3275578  -3335452  -3150852  -2970230  -2916200  -2979289  -1240167  -932297  -1464874  -1703400  -2260215  -2278844  -2611511  -2544000  -2850037  -3034778  -3602348  -4667733  -5907763  -6560911  -7358711  -7175156  -6295178  -5719607  -5422948  -4959126  -4907874  -4908607  -4819681  -4898074  -4906748  -4734652  -4775156  -4577904  -4869622  -4883681  -4945104  -4956541  -5106326  -5134311  -5121526  -5149281  -5235956  -5262941  -5341444  -5465148  -5558911  -5549289  -5556993  -5501096  -5540000  -5613585  -5653541  -5726830  -5740074  -5736533  -5665956  -5719044  -5801733  -5740667  -5933726  -5955615  -5662993  -5840600  -5798081  -5799541  -5730689  -5816178  -5828356  -5837296  -5872859  -5921659  -6040556  -6073785  -6168659  -6162267  -6282889  -6290230  -6349600  -5338481  -2872156  -2283911  -4207763  -6197370  -6436067  -6353615  -6190356  -6024081  -6017985  -5862896  -5769481  -6108956  -6207941  -6239348  -5537104  -5848156  -5668948  -5788770  -5703733  -5772089  -5603504  -5591296  -5835370  -5514104  -5839326  -5777415  -5580526  -5601170  -5671541  -5662126  -5689267  -5634037  -5562800  -5550793  -5499000  -5514667  -5505963  -5533652  -5675563  -5569170  -5664415  -5655311  -5544319  -5719985  -5685207  -5436563  -5397363  -5482622  -5752370  -5729274  -5655385  -5549770  -5639022  -5620193  -5742674  -5770919  -5559644  -5602822  -5695896  -5663985  -5751044  -5782356  -5787696  -5666430  -5862696  -5826941  -5820163  -5781681  -5748763  -5466104  -5269467  -5722896  -5566407  -5338178  -5470793  -5443785  -5687970  -5547963  -5564452  -5581178  -5580844  -5612489  -5575733  -5515022  -5542911  -5587474  -5567378  -5538141  -5472081  -5558274  -5529289  -5496467  -5478207  -5476193  -5360356  -5346926  -5252274  -5244763  -5309170  -5313519  -5250148  -5226667  -5095889  -5233763  -5319281  -5214044  -5135837  -5117348  -5176378  -5092415  -5079044  -5044119  -5018556  -5018867  -4893733  -4818504  -4739481  -5034407  -5015378  -5048148  -5037541  -4905259  -4857726  -5142311  -5001719  -5125089  -5115356  -5049385  -4876044  -5079215  -5164526  -5115370  -5158600  -5164511  -5177007  -5246496  -5271941  -5158556  -5178452  -5259281  -5278911  -5318519  -5250815  -5250481  -5217844  -5200748  -5201926  -5182444  -5216911  -5207156  -5170356  -5297941  -5300289  -5277556  -5444793  -5153770  -5146533  -4799696  -4916200  -5112304  -5122274  -5130311  -5042274  -5092319  -5130459  -5081526  -5020970  -4995993  -4997215  -4973526  -4962600  -4952689  -4943748  -4919341  -4908881  -4886807  -4841037  -4815474  -4806444  -4805807  -4769985  -4747911  -4707393  -4680726  -4673185  -4687133  -4640356  -4649926  -4639459  -4595881  -4567778  -4539844  -4513193  -4492222  -4482600  -4471807  -4459800  -4449681  -4427119  -4410978  -4393852  -4370867  -4354926  -4334474  -4310474  -4301022  -4288830  -4270259  -4276089  -4255622  -4233037  -4236978  -4231200  -4226133  -4224933  -4157385  -4200304  -4203533  -4192585  -4174141  -4084230  -4104481  -4109830  -3980622  -3798430  -3929111  -3848304  -3688215  -3797837  -3818741  -3772733  -3670681  -3498481  -3475252  -3354407  -3252385  -3051244  -2878963  -2740904  -2070822  -2591474  -2624667  -2539607  -2540889  -2523259  -2564630  -2619148  -2696674  -2748667  -2739222  -2803681  -2773341  -2763830  -2756681  -2746163  -2707733  -2704370  -2718541  -2662148  -2617126  -2289519  -2085852  -1955667  -1504815  -889526  -306348  -53156  -5586  999000  999000  999000  999000  999000  999000  999000  999000  999000  999000  999000  999000  999000  999000  999000  999000 
 -1160733  -1261018  -1147255  -868048  -599679  -321109  -196279  -78223  999000  999000  -14112  -9929  -10111  -14600  -63507  -148103  -1356915  -2812848  -3043982  -3065533  -3263109  -3318248  -3246188  -3268176  -3212364  -3253855  -3304618  -3321273  -3311182  -3316503  -3337339  -3336927  -3369479  -3354376  -3390273  -3379273  -3261048  -3302558  -3357709  -3303200  -3207527  -3107485  -3050103  -1407301  -2732115  -2847648  -2232133  -1129521  -1339558  -2149436  -2429400  -2588618  -2732430  -2891436  -3676200  -4866527  -5522861  -6625964  -7034909  -6908679  -6240618  -5648315  -5283055  -5085018  -4787745  -4902800  -4998818  -4790576  -4698691  -4504461  -4754200  -4765588  -4917867  -4948733  -4961879  -4959576  -5126006  -5119073  -5116691  -5051485  -5265564  -5343358  -5375588  -5406812  -5448230  -5448255  -5572436  -5580527  -5663982  -5659212  -5707085  -5812073  -5728327  -5734297  -5702267  -5690776  -5747158  -5901527  -5722297  -5706109  -5850642  -5781770  -5763812  -5884085  -5896358  -5814976  -5873048  -5829806  -5895333  -5998006  -6126461  -6103339  -6210606  -6308800  -6369897  -6369461  -5529709  -3104909  -3286230  -3803939  -5993400  -6344576  -6328006  -6161382  -6005194  -6048176  -5705036  -5969915  -6023673  -5862224  -5726364  -5288358  -5552703  -5633303  -5758212  -5593752  -5830655  -5732594  -5821285  -5965715  -5513933  -5739848  -5793612  -5536091  -5632945  -5684600  -5617636  -5692267  -5648994  -5720042  -5615139  -5624091  -5683788  -5536055  -5533897  -5586345  -5669733  -5477109  -5569848  -5493473  -5213939  -5409097  -5319261  -5579073  -5448836  -5787897  -5459873  -5659352  -5409145  -5869588  -5756861  -5783394  -5805570  -5621055  -5678824  -5642818  -5716164  -5767158  -5811515  -5495685  -4895170  -5721412  -5698745  -5735212  -5665467  -5513000  -5457709  -5303115  -5597388  -5426400  -5334224  -5336042  -5531479  -5565648  -5592042  -5549370  -5397188  -5605109  -5617182  -5609436  -5560830  -5599315  -5570188  -5602339  -5593545  -5566721  -5500406  -5506776  -5486412  -5484200  -5470982  -5421194  -5329727  -5301248  -5304212  -5308218  -5282788  -5245121  -5239158  -5166685  -5312909  -5213164  -5244121  -4792091  -5132667  -5174400  -5141897  -5097424  -5020212  -5050418  -4987182  -4929382  -4918939  -4908418  -5040455  -4962552  -4995400  -5012933  -5031352  -4973073  -5071703  -5071497  -5069576  -4938800  -4874558  -5086424  -5172800  -5114515  -5042648  -5165861  -5170455  -5230339  -5246770  -5137830  -5122545  -5132806  -5162733  -5262139  -5261006  -5259988  -5229636  -5209715  -5168897  -5175915  -5209618  -5235127  -5223806  -5238988  -5429818  -5293661  -5170921  -5225212  -5338018  -5407576  -5262430  -5140970  -4974297  -5243455  -5162673  -5123200  -5097727  -5129818  -5023073  -5027297  -5009964  -4984164  -4955836  -4946424  -4934988  -4912527  -4911552  -4926964  -4899042  -4875939  -4834885  -4805655  -4797836  -4763255  -4731800  -4683200  -4663945  -4656376  -4649655  -4631764  -4616230  -4595655  -4553552  -4521958  -4508152  -4513164  -4496206  -4463242  -4444188  -4435927  -4428303  -4409776  -4394533  -4383830  -4362503  -4347133  -4319655  -4298897  -4288006  -4275218  -4259806  -4243903  -4237073  -4226182  -4223248  -4215782  -4205927  -4208176  -4164745  -4194618  -4189988  -4170376  -4170873  -4081303  -4127333  -4094042  -3936515  -3791448  -3901006  -3695006  -3855006  -3860309  -3816661  -3756188  -3634776  -3446715  -3317321  -3239055  -3152739  -3124727  -2622533  -1751909  -2134467  -1851364  -2741152  -2658503  -2442097  -2655588  -2573903  -2597497  -2696279  -2741527  -2758061  -2821248  -2757430  -2737412  -2722127  -2715848  -2691473  -2660745  -2642139  -2636388  -2596224  -2072915  -1925958  -1482327  -884897  -389485  -114206  -47879  -4217  999000  999000  999000  999000  999000  999000  999000  999000  999000  999000  999000  999000  999000  999000  999000  999000 
 -1218036  -1337539  -1112594  -845461  -642612  -525448  -278497  -108145  -33231  999000  999000  999000  999000  -22153  -57389  -137855  -1077685  -2666539  -2949491  -2833139  -3079818  -3216497  -3284752  -3308442  -3476691  -3413642  -3446600  -3309588  -3309115  -3319964  -3383412  -3332400  -3308588  -3324976  -3333879  -3412782  -3331994  -3343358  -3414061  -3402618  -3288152  -3096479  -2344539  -1695519  -3247564  -3074000  -2343497  -452345  -604135  -1318758  -1921588  -2076042  -2450861  -2644091  -3231612  -3803364  -4347976  -5726824  -6418758  -6970891  -6917400  -6411182  -5614279  -5085812  -4666400  -4881788  -4926624  -4539303  -4834897  -4567261  -4754764  -4760545  -4933382  -5027248  -5149200  -4929158  -5120127  -5085285  -5121497  -5196752  -5219921  -5258564  -5418636  -5391255  -5443309  -5494048  -5562127  -5554291  -5656061  -5710903  -5722594  -5679939  -5712364  -5738030  -5740624  -5774721  -5827297  -5887648  -5766115  -6002655  -5911800  -5858588  -5854812  -5888042  -5758018  -5836333  -5880255  -5876055  -5870733  -5968485  -6081200  -6157527  -6243182  -6306982  -6388939  -6147297  -4416358  -3712436  -4000194  -3627224  -5397715  -6205467  -6303467  -6202091  -6111291  -5779570  -5765267  -6115661  -5927158  -5971158  -5548564  -5431212  -5677230  -5693855  -5571455  -5600406  -5674715  -5871588  -5773515  -5950697  -5444812  -5427291  -5557873  -5217364  -5408952  -5528909  -5597400  -5492891  -5646048  -5675448  -5594436  -5650085  -5594103  -5448152  -5408733  -5637424  -5674212  -5967273  -5625655  -5512127  -5432455  -5286521  -5452576  -5900927  -5372758  -5647442  -5268206  -5719006  -5638594  -5889242  -5855758  -5860673  -5752303  -5562939  -5645176  -5640545  -5727261  -5736218  -5181339  -5781594  -5630370  -5421145  -5482933  -5614218  -5621764  -5537291  -5455970  -5292273  -5747121  -5509970  -5152727  -5413861  -5635485  -5598291  -5488842  -5473752  -5366897  -5547291  -5549509  -5441958  -5461685  -5561842  -5573855  -5636558  -5678830  -5650255  -5475455  -5523909  -5491988  -5469733  -5489200  -5430479  -5381394  -5281558  -5312158  -5321103  -5265248  -5321394  -5197006  -5034194  -5291612  -5020558  -5188576  -5154461  -5015006  -5019048  -4861612  -5101903  -5070715  -4958152  -4968224  -5051697  -5008139  -4967655  -5070939  -4996521  -4993176  -5001909  -5013861  -4878291  -5105091  -5103164  -5042291  -4975400  -4945091  -5083024  -5076564  -5127182  -5158939  -5175024  -5172364  -5246982  -5241842  -5099479  -5129909  -5140667  -5160958  -5246048  -5226715  -5203358  -5207182  -5202855  -5180679  -5157461  -5226048  -5203685  -5173036  -5299273  -5350927  -5211752  -5139358  -5136727  -5455230  -5306267  -5089606  -5263242  -5057703  -5139679  -5174139  -5174224  -4980721  -5076861  -5079867  -5022527  -4975994  -4964970  -4952648  -4953836  -4934545  -4914727  -4915485  -4915758  -4897036  -4885406  -4864103  -4829430  -4809879  -4777085  -4720588  -4690770  -4679861  -4646927  -4548636  -4602703  -4615655  -4583867  -4552285  -4540273  -4511400  -4515067  -4507576  -4482776  -4455139  -4433539  -4409061  -4384067  -4374182  -4372267  -4352752  -4336915  -4306303  -4297309  -4273412  -4256448  -4248242  -4226418  -4219121  -4207564  -4201333  -4197436  -4188291  -4178764  -4183655  -4204873  -4184867  -4161067  -4150006  -4090218  -4125691  -4087697  -3692600  -3827958  -3910897  -3922024  -3899430  -3863461  -3793909  -3753285  -3660370  -3439485  -3286339  -3251891  -3201097  -3265442  -2885970  -2543067  -2440400  -1477273  -2823873  -2671945  -2603248  -2701630  -2612794  -2548145  -2680927  -2743515  -2694982  -2698455  -2736927  -2722758  -2680424  -2686109  -2673430  -2621515  -2595139  -2615048  -2486267  -1901339  -1898200  -1290194  -630279  -162461  -90091  -37818  -2118  999000  999000  999000  999000  999000  999000  999000  999000  999000  999000  999000  999000  999000  999000  999000  999000 
 -1025674  -1203059  -1136600  -954756  -930630  -678489  -387978  -173074  -59846  999000  999000  999000  -15167  -68059  -113119  -231578  -1357652  -2374963  -2446393  -2619363  -2850637  -3073793  -3250985  -3452578  -3624341  -3512422  -3498719  -3359556  -3322148  -3332378  -3375711  -3342830  -3336748  -3272704  -3334096  -3369867  -3324541  -3322970  -3364578  -3540311  -3382985  -2887837  -2400585  -2992141  -3181141  -3065585  -2936193  -2000133  -448787  -502984  -1326704  -1852970  -2240370  -2471815  -2871741  -3107978  -3169237  -4385807  -5508356  -6358844  -7136607  -7285719  -5992370  -5170444  -4726281  -4952400  -4771207  -4806200  -4800007  -4759378  -4788637  -4869978  -4874481  -4939844  -5325504  -5103896  -5058378  -5125844  -5091444  -5132815  -5199756  -5257237  -5332926  -5416496  -5474370  -5553015  -5564237  -5589015  -5606844  -5688615  -5806756  -5720207  -5715607  -5751563  -5769274  -5910333  -5886607  -5815793  -5921904  -6132074  -5904822  -5822556  -5800504  -5844193  -5781244  -5878104  -5890274  -5914030  -5862941  -6001822  -6145904  -6208615  -6273215  -6243030  -6398422  -6244496  -5058904  -3102437  -2765348  -3033422  -5077222  -6226511  -6279563  -6334807  -6059400  -5673474  -6029185  -5753022  -6090452  -6125489  -5644096  -5471170  -5393222  -5684059  -5839593  -5529178  -5689837  -5836156  -5844178  -5793956  -5588459  -5279622  -5447104  -5380185  -5552578  -5424370  -5464126  -5468378  -5572844  -5556556  -5474193  -5528526  -5518244  -5487556  -5614926  -5766570  -5512244  -5522859  -5818067  -5747052  -5644607  -5508296  -5524437  -5567156  -5385141  -5772630  -5673304  -5687681  -5728407  -5017615  -5367200  -5623378  -5643600  -5534385  -5551541  -5587867  -5637926  -5714370  -5555378  -5434311  -5472311  -5259896  -5436859  -5554696  -5483074  -5499252  -5399637  -5310704  -5994911  -5655067  -5152363  -5448748  -5585496  -5593363  -5526415  -5469770  -5413474  -5416644  -5493081  -5456133  -5420644  -5490919  -5613059  -5733756  -5671274  -5617393  -5527630  -5450319  -5361326  -5191193  -5535911  -5132644  -5445193  -5410830  -5384689  -5342837  -5299252  -5315289  -5258037  -5244667  -5279800  -5057081  -5245652  -5225719  -5170978  -5200711  -5148133  -5094119  -5181607  -5153978  -5158200  -5055356  -5096230  -5083674  -5055593  -5051585  -5080489  -5093778  -5100563  -5110667  -5147281  -5160985  -5181007  -5116926  -5066385  -5150815  -5176844  -5159022  -5228363  -5248548  -5220978  -5225748  -5219437  -5200237  -5208793  -5177452  -5175504  -5249096  -5239704  -5216830  -5215526  -5208585  -5187348  -5199874  -5210422  -5214304  -5222837  -5235415  -5234444  -5248541  -5194630  -4818274  -5192593  -5221356  -5174556  -5224193  -5248015  -5279726  -5122274  -5094867  -5138978  -5104593  -5075978  -5055859  -5024904  -4974622  -4973756  -4993304  -4971941  -4932785  -4914637  -4914644  -4910704  -4900052  -4880444  -4864348  -4817637  -4795437  -4766667  -4735889  -4719874  -4701089  -4689948  -4659704  -4633822  -4607711  -4580963  -4555370  -4514000  -4516785  -4498319  -4492319  -4467148  -4451200  -4423444  -4388519  -4358474  -4360800  -4339333  -4324200  -4300985  -4294430  -4272363  -4233030  -4217393  -4226281  -4215726  -4183407  -4173570  -4160133  -4151533  -4163200  -4168637  -4166933  -4169504  -4180630  -4151674  -4137185  -4113704  -4073281  -3856148  -3947244  -3953170  -3936889  -3908519  -3814837  -3722570  -3744807  -3590800  -3433467  -3281222  -3220963  -3102607  -3228800  -3087785  -2926444  -3003133  -2879193  -2905281  -2741444  -2642481  -2674385  -2661437  -2565015  -2653489  -2736548  -2707533  -2706726  -2712096  -2700267  -2673659  -2698141  -2627156  -2572778  -2553948  -2564896  -2363859  -1789356  -1825052  -1579252  -622267  -137652  -71504  -26838  -681  999000  999000  999000  999000  999000  999000  999000  999000  999000  999000  999000  999000  999000  999000  999000  999000 
 -866218  -1033915  -1133285  -1095697  -1087442  -1022661  -635206  -247624  -78158  999000  999000  999000  -26136  -88121  -140273  -593291  -1707194  -2086503  -2148115  -2391182  -2710509  -3014303  -3027327  -3525079  -3360327  -3448952  -3426345  -3372424  -3380588  -3335891  -3362073  -3364848  -3349612  -3338527  -3325042  -3305061  -3312006  -3307024  -3294073  -3434400  -3416691  -3320533  -3029855  -2765224  -3329267  -3167679  -2908873  -2990406  -1734352  -183724  -650903  -1369661  -1967430  -2249370  -2495697  -2689921  -2359570  -3179527  -4828939  -5729400  -6716315  -7307879  -6213952  -5313921  -5145145  -4923679  -4792315  -4749455  -4366582  -4755891  -4841024  -4884533  -4866958  -4952182  -5214333  -5148758  -5357691  -5285618  -5079570  -5192964  -5150067  -5169448  -5228861  -5281745  -5413224  -5463648  -5474012  -5583509  -5698830  -5692121  -5704091  -5775885  -5756333  -5684618  -5775448  -5820842  -5844539  -5812873  -6019267  -5886921  -5936552  -5750897  -5874224  -5809612  -5816558  -5878012  -5902976  -5925327  -5941824  -6103206  -6078618  -6111642  -6262073  -6409867  -6436345  -5791539  -3943830  -3054618  -3079467  -2686073  -5532533  -6371594  -6374655  -6324012  -5795970  -5898436  -5826497  -5957691  -6144418  -5526879  -5651897  -5534345  -5452855  -5485224  -5496024  -5791327  -5720430  -5925218  -5536527  -5804121  -5586915  -5327127  -5545400  -5375509  -5352158  -5295855  -5405042  -5542939  -5466915  -5333327  -5402024  -5799364  -5747042  -5402242  -5302970  -5732909  -5596327  -5684158  -5455770  -5483236  -5523661  -5556764  -5585436  -5570467  -5486703  -5548673  -5706545  -5627267  -5649545  -5624485  -5720273  -5666667  -5601727  -5556582  -5595042  -5627764  -5686030  -5748885  -5535521  -5251412  -5331539  -5403564  -5456248  -5463606  -5530855  -5521715  -5500927  -5335921  -5759436  -5620073  -5288558  -5421212  -5508521  -5609406  -5610382  -5601818  -5432388  -5488497  -5532691  -5554352  -5346909  -5541418  -5658315  -5741836  -5626024  -5513588  -5313703  -5334255  -5267315  -5235642  -5466588  -5438242  -5367703  -5442515  -5352285  -5338467  -5341358  -5317606  -5295533  -5249806  -5162812  -5286812  -5147697  -4889509  -4912848  -5116988  -5144564  -5126024  -5098600  -5263970  -5093000  -5096218  -4996388  -4977036  -5039473  -4940612  -4968182  -4986891  -5027030  -5097927  -5088055  -5100527  -5090642  -5060412  -5118812  -5105200  -5139988  -5162709  -5157327  -5226176  -5236988  -5108000  -5136127  -5119012  -5112576  -5168733  -5120915  -5235758  -5229982  -5220303  -5217024  -5179145  -5169194  -5176994  -5218285  -5192667  -5271321  -5246776  -5209412  -5319945  -5252739  -5199012  -5142982  -5170024  -5119255  -5143661  -4862133  -5071345  -4895539  -4887448  -5023673  -5210988  -5150194  -5110552  -5054515  -5010630  -4977339  -4956333  -4967430  -4967036  -4949939  -4919303  -4888327  -4913667  -4915024  -4876073  -4802679  -4775321  -4783976  -4776006  -4762558  -4714394  -4664636  -4610376  -4618673  -4627703  -4566703  -4582242  -4539224  -4499897  -4474418  -4475218  -4457133  -4449588  -4414552  -4387558  -4347448  -4328830  -4321952  -4314479  -4299152  -4281030  -4280097  -4234236  -4208958  -4212473  -4178715  -4163424  -4140164  -4130491  -4128915  -4144115  -4126176  -4139733  -4124733  -4156770  -4132745  -4138309  -4120491  -3978273  -3991309  -4024564  -4006764  -3944212  -3915600  -3747721  -3672848  -3679321  -3512382  -3374230  -3261315  -3238248  -3228042  -3224085  -2430364  -2957224  -2956509  -2894418  -2719273  -2828164  -2674855  -2731648  -2704539  -2591036  -2610661  -2710061  -2722406  -2696152  -2711255  -2689079  -2668715  -2653194  -2591794  -2549879  -2527836  -2510927  -2074721  -1723067  -1693297  -1469764  -605976  -121394  -61545  -23742  999000  999000  999000  999000  -4078  -45141  -46444  999000  999000  999000  999000  999000  999000  999000  999000  999000  999000 
[...]
 3  3  3  3  3  3  3  3  3  3  3  3  3  3  3  3  3  3  3  3  3  3  3  3  3  3  3  3  3  3  3  3  3  3  3  3  3  3  3  3  3  3  3  3  3  3  3  3  3  3  3  3  3  3  3  3  3  3  3  3  3  3  3  3  3  3  3  3  3  3  3  3  3  3  3  3  3  3  3  3  3  3  3  3  3  3  3  3  3  3  3  3  3  3  3  3  3  3  3  3  3  3  3  3  3  3  3  3  3  3  3  3  3  3  3  3  3  3  3  3  3  3  3  3  3  3  3  3  3  3  3  3  3  3  3  3  3  3  3  3  3  3  3  3  3  3  3  3  3  3  3  3  3  3  3  3  3  3  3  3  3  3  3  3  3  3  3  3  3  3  3  3  3  3  3  3  3  3  3  3  3  3  3  3  3  3  3  3  3  3  3  3  3  3  3  3  3  3  3  3  3  3  3  3  3  3  3  3  3  3  3  3  3  3  3  3  3  3  3  3  3  3  3  3  3  3  3  3  3  2  2  2  1  1  1  1  1  1  1  1  1  1  1  1  1  1  1  1  1  1  1  1  1  1  1  1  1  1  1  1  1  1  1  1  1  1  1  1  1  1  1  1  1  1  1  1  1  1  1  1  1  1  1  1  1  1  1  1  1  1  1  1  1  1  1  1  1  1  1  1  1  1  1  1  1  1  1  2  2  2  2  2  2  2  2  2  3  3  3  3  3  3  3  3  3  3  3  3  3  3  3  3  3  3  3  3  3  3  3  3  3  3  3  3  3  3  3  3  3  3  3  3  3  3  3  3  3  3  3  3  3  3  3  3  3  3  3  3  3  3  3  3  3  3  3  3  3  3  3  3  3  3  3  3  3  3  3  3  3  3  3  3  3  3  3  3  3  3  3  3  3 
 3  3  3  3  3  3  3  3  3  3  3  3  3  3  3  3  3  3  3  3  3  3  3  3  3  3  3  3  3  3  3  3  3  3  3  3  3  3  3  3  3  3  3  3  3  3  3  3  3  3  3  3  3  3  3  3  3  3  3  3  3  3  3  3  3  3  3  3  3  3  3  3  3  3  3  3  3  3  3  3  3  3  3  3  3  3  3  3  3  3  3  3  3  3  3  3  3  3  3  3  3  3  3  3  3  3  3  3  3  3  3  3  3  3  3  3  3  3  3  3  3  3  3  3  3  3  3  3  3  3  3  3  3  3  3  3  3  3  3  3  3  3  3  3  3  3  3  3  3  3  3  3  3  3  3  3  3  3  3  3  3  3  3  3  3  3  3  3  3  3  3  3  3  3  3  3  3  3  3  3  3  3  3  3  3  3  3  3  3  3  3  3  3  3  3  3  3  3  3  3  3  3  3  3  3  3  3  3  3  3  3  3  3  3  3  3  3  3  3  3  3  3  3  3  3  3  3  3  3  3  3  3  2  2  2  2  1  1  1  1  1  1  1  1  1  1  1  1  1  1  1  1  1  1  1  1  1  1  1  1  1  1  1  1  1  1  1  1  1  1  1  1  1  1  1  1  1  1  1  1  1  1  1  1  1  1  1  1  1  1  1  1  1  1  1  1  1  1  1  1  2  2  2  2  2  2  2  3  3  3  3  3  3  3  3  3  3  3  3  3  3  3  3  3  3  3  3  3  3  3  3  3  3  3  3  3  3  3  3  3  3  3  3  3  3  3  3  3  3  3  3  3  3  3  3  3  3  3  3  3  3  3  3  3  3  3  3  3  3  3  3  3  3  3  3  3  3  3  3  3  3  3  3  3  3  3  3  3  3  3  3  3  3  3  3  3  3  3  3  3  3 
 3  3  3  3  3  3  3  3  3  3  3  3  3  3  3  3  3  3  3  3  3  3  3  3  3  3  3  3  3  3  3  3  3  3  3  3  3  3  3  3  3  3  3  3  3  3  3  3  3  3  3  3  3  3  3  3  3  3  3  3  3  3  3  3  3  3  3  3  3  3  3  3  3  3  3  3  3  3  3  3  3  3  3  3  3  3  3  3  3  3  3  3  3  3  3  3  3  3  3  3  3  3  3  3  3  3  3  3  3  3  3  3  3  3  3  3  3  3  3  3  3  3  3  3  3  3  3  3  3  3  3  3  3  3  3  3  3  3  3  3  3  3  3  3  3  3  3  3  3  3  3  3  3  3  3  3  3  3  3  3  3  3  3  3  3  3  3  3  3  3  3  3  3  3  3  3  3  3  3  3  3  3  3  3  3  3  3  3  3  3  3  3  3  3  3  3  3  3  3  3  3  3  3  3  3  3  3  3  3  3  3  3  3  3  3  3  3  3  3  3  3  3  3  3  3  3  3  3  3  3  3  3  3  3  3  3  2  2  2  2  2  1  1  1  1  1  1  1  1  1  1  1  1  1  1  1  1  1  1  1  1  1  1  1  1  1  1  1  1  1  1  1  1  1  1  1  1  1  1  1  1  1  1  1  1  1  1  2  2  2  2  2  2  2  2  2  2  2  2  2  3  3  3  3  3  3  3  3  3  3  3  3  3  3  3  3  3  3  3  3  3  3  3  3  3  3  3  3  3  3  3  3  3  3  3  3  3  3  3  3  3  3  3  3  3  3  3  3  3  3  3  3  3  3  3  3  3  3  3  3  3  3  3  3  3  3  3  3  3  3  3  3  3  3  3  3  3  3  3  3  3  3  3  3  3  3  3  3  3  3  3  3  3  3  3  3  3  3  3  3  3 
 3  3  3  3  3  3  3  3  3  3  3  3  3  3  3  3  3  3  3  3  3  3  3  3  3  3  3  3  3  3  3  3  3  3  3  3  3  3  3  3  3  3  3  3  3  3  3  3  3  3  3  3  3  3  3  3  3  3  3  3  3  3  3  3  3  3  3  3  3  3  3  3  3  3  3  3  3  3  3  3  3  3  3  3  3  3  3  3  3  3  3  3  3  3  3  3  3  3  3  3  3  3  3  3  3  3  3  3  3  3  3  3  3  3  3  3  3  3  3  3  3  3  3  3  3  3  3  3  3  3  3  3  3  3  3  3  3  3  3  3  3  3  3  3  3  3  3  3  3  3  3  3  3  3  3  3  3  3  3  3  3  3  3  3  3  3  3  3  3  3  3  3  3  3  3  3  3  3  3  3  3  3  3  3  3  3  3  3  3  3  3  3  3  3  3  3  3  3  3  3  3  3  3  3  3  3  3  3  3  3  3  3  3  3  3  3  3  3  3  3  3  3  3  3  3  3  3  3  3  3  3  3  3  3  3  3  3  3  3  3  3  2  2  2  2  2  2  2  1  1  1  1  1  1  1  1  1  1  1  1  1  1  1  1  1  1  1  1  1  1  1  1  1  1  1  1  1  1  1  1  1  2  2  2  2  2  2  3  3  3  3  3  3  3  3  3  3  3  3  3  3  3  3  3  3  3  3  3  3  3  3  3  3  3  3  3  3  3  3  3  3  3  3  3  3  3  3  3  3  3  3  3  3  3  3  3  3  3  3  3  3  3  3  3  3  3  3  3  3  3  3  3  3  3  3  3  3  3  3  3  3  3  3  3  3  3  3  3  3  3  3  3  3  3  3  3  3  3  3  3  3  3  3  3  3  3  3  3  3  3  3  3  3  3  3  3  3  3  3  3  3 
 3  3  3  3  3  3  3  3  3  3  3  3  3  3  3  3  3  3  3  3  3  3  3  3  3  3  3  3  3  3  3  3  3  3  3  3  3  3  3  3  3  3  3  3  3  3  3  3  3  3  3  3  3  3  3  3  3  3  3  3  3  3  3  3  3  3  3  3  3  3  3  3  3  3  3  3  3  3  3  3  3  3  3  3  3  3  3  3  3  3  3  3  3  3  3  3  3  3  3  3  3  3  3  3  3  3  3  3  3  3  3  3  3  3  3  3  3  3  3  3  3  3  3  3  3  3  3  3  3  3  3  3  3  3  3  3  3  3  3  3  3  3  3  3  3  3  3  3  3  3  3  3  3  3  3  3  3  3  3  3  3  3  3  3  3  3  3  3  3  3  3  3  3  3  3  3  3  3  3  3  3  3  3  3  3  3  3  3  3  3  3  3  3  3  3  3  3  3  3  3  3  3  3  3  3  3  3  3  3  3  3  3  3  3  3  3  3  3  3  3  3  3  3  3  3  3  3  3  3  3  3  3  3  3  3  3  3  3  3  3  3  3  3  3  3  3  3  3  2  2  2  2  2  2  2  2  2  2  2  2  2  2  2  2  2  2  2  2  2  2  2  2  2  2  2  2  2  2  2  2  2  3  3  3  3  3  3  3  3  3  3  3  3  3  3  3  3  3  3  3  3  3  3  3  3  3  3  3  3  3  3  3  3  3  3  3  3  3  3  3  3  3  3  3  3  3  3  3  3  3  3  3  3  3  3  3  3  3  3  3  3  3  3  3  3  3  3  3  3  3  3  3  3  3  3  3  3  3  3  3  3  3  3  3  3  3  3  3  3  3  3  3  3  3  3  3  3  3  3  3  3  3  3  3  3  3  3  3  3  3  3  3  3  3  3  3  3  3  3  3  3 
 3  3  3  3  3  3  3  3  3  3  3  3  3  3  3  3  3  3  3  3  3  3  3  3  3  3  3  3  3  3  3  3  3  3  3  3  3  3  3  3  3  3  3  3  3  3  3  3  3  3  3  3  3  3  3  3  3  3  3  3  3  3  3  3  3  3  3  3  3  3  3  3  3  3  3  3  3  3  3  3  3  3  3  3  3  3  3  3  3  3  3  3  3  3  3  3  3  3  3  3  3  3  3  3  3  3  3  3  3  3  3  3  3  3  3  3  3  3  3  3  3  3  3  3  3  3  3  3  3  3  3  3  3  3  3  3  3  3  3  3  3  3  3  3  3  3  3  3  3  3  3  3  3  3  3  3  3  3  3  3  3  3  3  3  3  3  3  3  3  3  3  3  3  3  3  3  3  3  3  3  3  3  3  3  3  3  3  3  3  3  3  3  3  3  3  3  3  3  3  3  3  3  3  3  3  3  3  3  3  3  3  3  3  3  3  3  3  3  3  3  3  3  3  3  3  3  3  3  3  3  3  3  3  3  3  3  3  3  3  3  3  3  3  3  3  3  3  3  3  3  3  3  3  3  3  3  3  3  3  3  3  3  3  3  3  3  3  3  3  3  3  3  3  3  3  3  3  3  3  3  3  3  3  3  3  3  3  3  3  3  3  3  3  3  3  3  3  3  3  3  3  3  3  3  3  3  3  3  3  3  3  3  3  3  3  3  3  3  3  3  3  3  3  3  3  3  3  3  3  3  3  3  3  3  3  3  3  3  3  3  3  3  3  3  3  3  3  3  3  3  3  3  3  3  3  3  3  3  3  3  3  3  3  3  3  3  3  3  3  3  3  3  3  3  3  3  3  3  3  3  3  3  3  3  3  3  3  3  3  3  3  3  3  3  3  3  3  3  3  3  3 
 3  3  3  3  3  3  3  3  3  3  3  3  3  3  3  3  3  3  3  3  3  3  3  3  3  3  3  3  3  3  3  3  3  3  3  3  3  3  3  3  3  3  3  3  3  3  3  3  3  3  3  3  3  3  3  3  3  3  3  3  3  3  3  3  3  3  3  3  3  3  3  3  3  3  3  3  3  3  3  3  3  3  3  3  3  3  3  3  3  3  3  3  3  3  3  3  3  3  3  3  3  3  3  3  3  3  3  3  3  3  3  3  3  3  3  3  3  3  3  3  3  3  3  3  3  3  3  3  3  3  3  3  3  3  3  3  3  3  3  3  3  3  3  3  3  3  3  3  3  3  3  3  3  3  3  3  3  3  3  3  3  3  3  3  3  3  3  3  3  3  3  3  3  3  3  3  3  3  3  3  3  3  3  3  3  3  3  3  3  3  3  3  3  3  3  3  3  3  3  3  3  3  3  3  3  3  3  3  3  3  3  3  3  3  3  3  3  3  3  3  3  3  3  3  3  3  3  3  3  3  3  3  3  3  3  3  3  3  3  3  3  3  3  3  3  3  3  3  3  3  3  3  3  3  3  3  3  3  3  3  3  3  3  3  3  3  3  3  3  3  3  3  3  3  3  3  3  3  3  3  3  3  3  3  3  3  3  3  3  3  3  3  3  3  3  3  3  3  3  3  3  3  3  3  3  3  3  3  3  3  3  3  3  3  3  3  3  3  3  3  3  3  3  3  3  3  3  3  3  3  3  3  3  3  3  3  3  3  3  3  3  3  3  3  3  3  3  3  3  3  3  3  3  3  3  3  3  3  3  3  3  3  3  3  3  3  3  3  3  3  3  3  3  3  3  3  3  3  3  3  3  3  3  3  3  3  3  3  3  3  3  3  3  3  3  3  3  3  3  3  3 
 3  3  3  3  3  3  3  3  3  3  3  3  3  3  3  3  3  3  3  3  3  3  3  3  3  3  3  3  3  3  3  3  3  3  3  3  3  3  3  3  3  3  3  3  3  3  3  3  3  3  3  3  3  3  3  3  3  3  3  3  3  3  3  3  3  3  3  3  3  3  3  3  3  3  3  3  3  3  3  3  3  3  3  3  3  3  3  3  3  3  3  3  3  3  3  3  3  3  3  3  3  3  3  3  3  3  3  3  3  3  3  3  3  3  3  3  3  3  3  3  3  3  3  3  3  3  3  3  3  3  3  3  3  3  3  3  3  3  3  3  3  3  3  3  3  3  3  3  3  3  3  3  3  3  3  3  3  3  3  3  3  3  3  3  3  3  3  3  3  3  3  3  3  3  3  3  3  3  3  3  3  3  3  3  3  3  3  3  3  3  3  3  3  3  3  3  3  3  3  3  3  3  3  3  3  3  3  3  3  3  3  3  3  3  3  3  3  3  3  3  3  3  3  3  3  3  3  3  3  3  3  3  3  3  3  3  3  3  3  3  3  3  3  3  3  3  3  3  3  3  3  3  3  3  3  3  3  3  3  3  3  3  3  3  3  3  3  3  3  3  3  3  3  3  3  3  3  3  3  3  3  3  3  3  3  3  3  3  3  3  3  3  3  3  3  3  3  3  3  3  3  3  3  3  3  3  3  3  3  3  3  3  3  3  3  3  3  3  3  3  3  3  3  3  3  3  3  3  3  3  3  3  3  3  3  3  3  3  3  3  3  3  3  3  3  3  3  3  3  3  3  3  3  3  3  3  3  3  3  3  3  3  3  3  3  3  3  3  3  3  3  3  3  3  3  3  3  3  3  3  3  3  3  3  3  3  3  3  3  3  3  3  3  3  3  3  3  3  3  3  3 
 3  3  3  3  3  3  3  3  3  3  3  3  3  3  3  3  3  3  3  3  3  3  3  3  3  3  3  3  3  3  3  3  3  3  3  3  3  3  3  3  3  3  3  3  3  3  3  3  3  3  3  3  3  3  3  3  3  3  3  3  3  3  3  3  3  3  3  3  3  3  3  3  3  3  3  3  3  3  3  3  3  3  3  3  3  3  3  3  3  3  3  3  3  3  3  3  3  3  3  3  3  3  3  3  3  3  3  3  3  3  3  3  3  3  3  3  3  3  3  3  3  3  3  3  3  3  3  3  3  3  3  3  3  3  3  3  3  3  3  3  3  3  3  3  3  3  3  3  3  3  3  3  3  3  3  3  3  3  3  3  3  3  3  3  3  3  3  3  3  3  3  3  3  3  3  3  3  3  3  3  3  3  3  3  3  3  3  3  3  3  3  3  3  3  3  3  3  3  3  3  3  3  3  3  3  3  3  3  3  3  3  3  3  3  3  3  3  3  3  3  3  3  3  3  3  3  3  3  3  3  3  3  3  3  3  3  3  3  3  3  3  3  3  3  3  3  3  3  3  3  3  3  3  3  3  3  3  3  3  3  3  3  3  3  3  3  3  3  3  3  3  3  3  3  3  3  3  3  3  3  3  3  3  3  3  3  3  3  3  3  3  3  3  3  3  3  3  3  3  3  3  3  3  3  3  3  3  3  3  3  3  3  3  3  3  3  3  3  3  3  3  3  3  3  3  3  3  3  3  3  3  3  3  3  3  3  3  3  3  3  3  3  3  3  3  3  3  3  3  3  3  3  3  3  3  3  3  3  3  3  3  3  3  3  3  3  3  3  3  3  3  3  3  3  3  3  3  3  3  3  3  3  3  3  3  3  3  3  3  3  3  3  3  3  3  3  3  3  3  3  3 
 3  3  3  3  3  3  3  3  3  3  3  3  3  3  3  3  3  3  3  3  3  3  3  3  3  3  3  3  3  3  3  3  3  3  3  3  3  3  3  3  3  3  3  3  3  3  3  3  3  3  3  3  3  3  3  3  3  3  3  3  3  3  3  3  3  3  3  3  3  3  3  3  3  3  3  3  3  3  3  3  3  3  3  3  3  3  3  3  3  3  3  3  3  3  3  3  3  3  3  3  3  3  3  3  3  3  3  3  3  3  3  3  3  3  3  3  3  3  3  3  3  3  3  3  3  3  3  3  3  3  3  3  3  3  3  3  3  3  3  3  3  3  3  3  3  3  3  3  3  3  3  3  3  3  3  3  3  3  3  3  3  3  3  3  3  3  3  3  3  3  3  3  3  3  3  3  3  3  3  3  3  3  3  3  3  3  3  3  3  3  3  3  3  3  3  3  3  3  3  3  3  3  3  3  3  3  3  3  3  3  3  3  3  3  3  3  3  3  3  3  3  3  3  3  3  3  3  3  3  3  3  3  3  3  3  3  3  3  3  3  3  3  3  3  3  3  3  3  3  3  3  3  3  3  3  3  3  3  3  3  3  3  3  3  3  3  3  3  3  3  3  3  3  3  3  3  3  3  3  3  3  3  3  3  3  3  3  3  3  3  3  3  3  3  3  3  3  3  3  3  3  3  3  3  3  3  3  3  3  3  3  3  3  3  3  3  3  3  3  3  3  3  3  3  3  3  3  3  3  3  3  3  3  3  3  3  3  3  3  3  3  3  3  3  3  3  3  3  3  3  3  3  3  3  3  3  3  3  3  3  3  3  3  3  3  3  3  3  3  3  3  3  3  3  3  3  3  3  3  3  3  3  3  3  3  3  3  3  3  3  3  3  3  3  3  3  3  3  3  3  3 
 3  3  3  3  3  3  3  3  3  3  3  3  3  3  3  3  3  3  3  3  3  3  3  3  3  3  3  3  3  3  3  3  3  3  3  3  3  3  3  3  3  3  3  3  3  3  3  3  3  3  3  3  3  3  3  3  3  3  3  3  3  3  3  3  3  3  3  3  3  3  3  3  3  3  3  3  3  3  3  3  3  3  3  3  3  3  3  3  3  3  3  3  3  3  3  3  3  3  3  3  3  3  3  3  3  3  3  3  3  3  3  3  3  3  3  3  3  3  3  3  3  3  3  3  3  3  3  3  3  3  3  3  3  3  3  3  3  3  3  3  3  3  3  3  3  3  3  3  3  3  3  3  3  3  3  3  3  3  3  3  3  3  3  3  3  3  3  3  3  3  3  3  3  3  3  3  3  3  3  3  3  3  3  3  3  3  3  3  3  3  3  3  3  3  3  3  3  3  3  3  3  3  3  3  3  3  3  3  3  3  3  3  3  3  3  3  3  3  3  3  3  3  3  3  3  3  3  3  3  3  3  3  3  3  3  3  3  3  3  3  3  3  3  3  3  3  3  3  3  3  3  3  3  3  3  3  3  3  3  3  3  3  3  3  3  3  3  3  3  3  3  3  3  3  3  3  3  3  3  3  3  3  3  3  3  3  3  3  3  3  3  3  3  3  3  3  3  3  3  3  3  3  3  3  3  3  3  3  3  3  3  3  3  3  3  3  3  3  3  3  3  3  3  3  3  3  3  3  3  3  3  3  3  3  3  3  3  3  3  3  3  3  3  3  3  3  3  3  3  3  3  3  3  3  3  3  3  3  3  3  3  3  3  3  3  3  3  3  3  3  3  3  3  3  3  3  3  3  3  3  3  3  3  3  3  3  3  3  3  3  3  3  3  3  3  3  3  3  3  3  3 
 3  3  3  3  3  3  3  3  3  3  3  3  3  3  3  3  3  3  3  3  3  3  3  3  3  3  3  3  3  3  3  3  3  3  3  3  3  3  3  3  3  3  3  3  3  3  3  3  3  3  3  3  3  3  3  3  3  3  3  3  3  3  3  3  3  3  3  3  3  3  3  3  3  3  3  3  3  3  3  3  3  3  3  3  3  3  3  3  3  3  3  3  3  3  3  3  3  3  3  3  3  3  3  3  3  3  3  3  3  3  3  3  3  3  3  3  3  3  3  3  3  3  3  3  3  3  3  3  3  3  3  3  3  3  3  3  3  3  3  3  3  3  3  3  3  3  3  3  3  3  3  3  3  3  3  3  3  3  3  3  3  3  3  3  3  3  3  3  3  3  3  3  3  3  3  3  3  3  3  3  3  3  3  3  3  3  3  3  3  3  3  3  3  3  3  3  3  3  3  3  3  3  3  3  3  3  3  3  3  3  3  3  3  3  3  3  3  3  3  3  3  3  3  3  3  3  3  3  3  3  3  3  3  3  3  3  3  3  3  3  3  3  3  3  3  3  3  3  3  3  3  3  3  3  3  3  3  3  3  3  3  3  3  3  3  3  3  3  3  3  3  3  3  3  3  3  3  3  3  3  3  3  3  3  3  3  3  3  3  3  3  3  3  3  3  3  3  3  3  3  3  3  3  3  3  3  3  3  3  3  3  3  3  3  3  3  3  3  3  3  3  3  3  3  3  3  3  3  3  3  3  3  3  3  3  3  3  3  3  3  3  3  3  3  3  3  3  3  3  3  3  3  3  3  3  3  3  3  3  3  3  3  3  3  3  3  3  3  3  3  3  3  3  3  3  3  3  3  3  3  3  3  3  3  3  3  3  3  3  3  3  3  3  3  3  3  3  3  3  3  3 
 3  3  3  3  3  3  3  3  3  3  3  3  3  3  3  3  3  3  3  3  3  3  3  3  3  3  3  3  3  3  3  3  3  3  3  3  3  3  3  3  3  3  3  3  3  3  3  3  3  3  3  3  3  3  3  3  3  3  3  3  3  3  3  3  3  3  3  3  3  3  3  3  3  3  3  3  3  3  3  3  3  3  3  3  3  3  3  3  3  3  3  3  3  3  3  3  3  3  3  3  3  3  3  3  3  3  3  3  3  3  3  3  3  3  3  3  3  3  3  3  3  3  3  3  3  3  3  3  3  3  3  3  3  3  3  3  3  3  3  3  3  3  3  3  3  3  3  3  3  3  3  3  3  3  3  3  3  3  3  3  3  3  3  3  3  3  3  3  3  3  3  3  3  3  3  3  3  3  3  3  3  3  3  3  3  3  3  3  3  3  3  3  3  3  3  3  3  3  3  3  3  3  3  3  3  3  3  3  3  3  3  3  3  3  3  3  3  3  3  3  3  3  3  3  3  3  3  3  3  3  3  3  3  3  3  3  3  3  3  3  3  3  3  3  3  3  3  3  3  3  3  3  3  3  3  3  3  3  3  3  3  3  3  3  3  3  3  3  3  3  3  3  3  3  3  3  3  3  3  3  3  3  3  3  3  3  3  3  3  3  3  3  3  3  3  3  3  3  3  3  3  3  3  3  3  3  3  3  3  3  3  3  3  3  3  3  3  3  3  3  3  3  3  3  3  3  3  3  3  3  3  3  3  3  3  3  3  3  3  3  3  3  3  3  3  3  3  3  3  3  3  3  3  3  3  3  3  3  3  3  3  3  3  3  3  3  3  3  3  3  3  3  3  3  3  3  3  3  3  3  3  3  3  3  3  3  3  3  3  3  3  3  3  3  3  3  3  3  3  3  3 
 3  3  3  3  3  3  3  3  3  3  3  3  3  3  3  3  3  3  3  3  3  3  3  3  3  3  3  3  3  3  3  3  3  3  3  3  3  3  3  3  3  3  3  3  3  3  3  3  3  3  3  3  3  3  3  3  3  3  3  3  3  3  3  3  3  3  3  3  3  3  3  3  3  3  3  3  3  3  3  3  3  3  3  3  3  3  3  3  3  3  3  3  3  3  3  3  3  3  3  3  3  3  3  3  3  3  3  3  3  3  3  3  3  3  3  3  3  3  3  3  3  3  3  3  3  3  3  3  3  3  3  3  3  3  3  3  3  3  3  3  3  3  3  3  3  3  3  3  3  3  3  3  3  3  3  3  3  3  3  3  3  3  3  3  3  3  3  3  3  3  3  3  3  3  3  3  3  3  3  3  3  3  3  3  3  3  3  3  3  3  3  3  3  3  3  3  3  3  3  3  3  3  3  3  3  3  3  3  3  3  3  3  3  3  3  3  3  3  3  3  3  3  3  3  3  3  3  3  3  3  3  3  3  3  3  3  3  3  3  3  3  3  3  3  3  3  3  3  3  3  3  3  3  3  3  3  3  3  3  3  3  3  3  3  3  3  3  3  3  3  3  3  3  3  3  3  3  3  3  3  3  3  3  3  3  3  3  3  3  3  3  3  3  3  3  3  3  3  3  3  3  3  3  3  3  3  3  3  3  3  3  3  3  3  3  3  3  3  3  3  3  3  3  3  3  3  3  3  3  3  3  3  3  3  3  3  3  3  3  3  3  3  3  3  3  3  3  3  3  3  3  3  3  3  3  3  3  3  3  3  3  3  3  3  3  3  3  3  3  3  3  3  3  3  3  3  3  3  3  3  3  3  3  3  3  3  3  3  3  3  3  3  3  3  3  3  3  3  3  3  3 
 3  3  3  3  3  3  3  3  3  3  3  3  3  3  3  3  3  3  3  3  3  3  3  3  3  3  3  3  3  3  3  3  3  3  3  3  3  3  3  3  3  3  3  3  3  3  3  3  3  3  3  3  3  3  3  3  3  3  3  3  3  3  3  3  3  3  3  3  3  3  3  3  3  3  3  3  3  3  3  3  3  3  3  3  3  3  3  3  3  3  3  3  3  3  3  3  3  3  3  3  3  3  3  3  3  3  3  3  3  3  3  3  3  3  3  3  3  3  3  3  3  3  3  3  3  3  3  3  3  3  3  3  3  3  3  3  3  3  3  3  3  3  3  3  3  3  3  3  3  3  3  3  3  3  3  3  3  3  3  3  3  3  3  3  3  3  3  3  3  3  3  3  3  3  3  3  3  3  3  3  3  3  3  3  3  3  3  3  3  3  3  3  3  3  3  3  3  3  3  3  3  3  3  3  3  3  3  3  3  3  3  3  3  3  3  3  3  3  3  3  3  3  3  3  3  3  3  3  3  3  3  3  3  3  3  3  3  3  3  3  3  3  3  3  3  3  3  3  3  3  3  3  3  3  3  3  3  3  3  3  3  3  3  3  3  3  3  3  3  3  3  3  3  3  3  3  3  3  3  3  3  3  3  3  3  3  3  3  3  3  3  3  3  3  3  3  3  3  3  3  3  3  3  3  3  3  3  3  3  3  3  3  3  3  3  3  3  3  3  3  3  3  3  3  3  3  3  3  3  3  3  3  3  3  3  3  3  3  3  3  3  3  3  3  3  3  3  3  3  3  3  3  3  3  3  3  3  3  3  3  3  3  3  3  3  3  3  3  3  3  3  3  3  3  3  3  3  3  3  3  3  3  3  3  3  3  3  3  3  3  3  3  3  3  3  3  3  3  3  3  3 
 3  3  3  3  3  3  3  3  3  3  3  3  3  3  3  3  3  3  3  3  3  3  3  3  3  3  3  3  3  3  3  3  3  3  3  3  3  3  3  3  3  3  3  3  3  3  3  3  3  3  3  3  3  3  3  3  3  3  3  3  3  3  3  3  3  3  3  3  3  3  3  3  3  3  3  3  3  3  3  3  3  3  3  3  3  3  3  3  3  3  3  3  3  3  3  3  3  3  3  3  3  3  3  3  3  3  3  3  3  3  3  3  3  3  3  3  3  3  3  3  3  3  3  3  3  3  3  3  3  3  3  3  3  3  3  3  3  3  3  3  3  3  3  3  3  3  3  3  3  3  3  3  3  3  3  3  3  3  3  3  3  3  3  3  3  3  3  3  3  3  3  3  3  3  3  3  3  3  3  3  3  3  3  3  3  3  3  3  3  3  3  3  3  3  3  3  3  3  3  3  3  3  3  3  3  3  3  3  3  3  3  3  3  3  3  3  3  3  3  3  3  3  3  3  3  3  3  3  3  3  3  3  3  3  3  3  3  3  3  3  3  3  3  3  3  3  3  3  3  3  3  3  3  3  3  3  3  3  3  3  3  3  3  3  3  3  3  3  3  3  3  3  3  3  3  3  3  3  3  3  3  3  3  3  3  3  3  3  3  3  3  3  3  3  3  3  3  3  3  3  3  3  3  3  3  3  3  3  3  3  3  3  3  3  3  3  3  3  3  3  3  3  3  3  3  3  3  3  3  3  3  3  3  3  3  3  3  3  3  3  3  3  3  3  3  3  3  3  3  3  3  3  3  3  3  3  3  3  3  3  3  3  3  3  3  3  3  3  3  3  3  3  3  3  3  3  3  3  3  3  3  3  3  3  3  3  3  3  3  3  3  3  3  3  3  3  3  3  3  3  3 
$
      0.  0.  0.  0.  0
$ -------------------------------------------------------------------- $
$ End of input file                                                    $
$ -------------------------------------------------------------------- $
