$ -------------------------------------------------------------------- $
$ WAVEWATCH III Grid preprocessor input file                           $
$ -------------------------------------------------------------------- $
  'West Coast 10 min wave grid   '
$
   1.07  0.035  50  36  0.5
$
   F T T T F T
$
$   900. 450. 450.  15.                              
$  1200. 450. 600.  15.                              
   1800. 450. 900.  15.                              
$
  &SIN4 BETAMAX = 1.33 /
  &MISC CICE0 = 0.25, CICEN = 0.75, FLAGTR = 4 /
END OF NAMELISTS
$
    'RECT' T 'NONE'
    241    151
      1.     1.     6.
    210.    25.     1.
     -0.1 2.50  10  0.001 1 1 '(....)' 'NAME' 'wc_10m.bot'
 -5325678  -5371223  -5311959  -5355293  -5296207  -5316074  -5407222  -5426231  -5388529  -5399788  -5257545  -5190653  -5233535  -5260760  -5228446  -5257646  -5282132  -5279281  -5260333  -5293959  -5287537  -5215758  -5068612  -5242950  -5167657  -5178165  -5153182  -5210505  -5193413  -5170215  -5028273  -5025570  -5160587  -5126263  -5179306  -5088884  -5086091  -5128595  -4934033  -4868081  -4856810  -4879595  -4864596  -4851711  -4925992  -4814788  -4829851  -4839388  -4660364  -4650074  -4565694  -4511414  -4571793  -4563066  -4670414  -4648818  -4669248  -4760566  -4633455  -4603198  -4806869  -4883157  -4872116  -4783838  -4661380  -4782331  -4787879  -4638570  -4584579  -4615121  -4653595  -4762165  -4772121  -4827942  -4707174  -4755949  -4604413  -4767554  -4831010  -4736752  -4759099  -4786788  -4756017  -4939174  -4920162  -4839992  -4959711  -4826192  -4676198  -4656380  -4632646  -4687281  -4682702  -4774212  -4610058  -4633595  -4747697  -4643331  -4508372  -4641919  -4659347  -4739058  -4709020  -4629769  -4584975  -4539313  -4699306  -4615264  -4413616  -4342868  -4273868  -4350505  -4460421  -4459140  -4568919  -4588331  -4534322  -4492465  -4665818  -4686603  -4702717  -4553157  -4790107  -4787939  -4591769  -4337835  -4475404  -4574521  -4180190  -4500778  -4390950  -4459835  -4498646  -4431678  -4348653  -4400929  -4016388  -3660562  -3677071  -4897421  -4500529  -4465091  -4409694  -4235595  -4357182  -4362347  -4420760  -4434374  -4493843  -4495777  -4459364  -4366694  -4225975  -4439242  -4128992  -4194835  -4384152  -4358595  -4276256  -4275162  -4170074  -4298421  -4273111  -4264339  -4308587  -4235515  -4097050  -4195876  -4231253  -4156868  -4125388  -4113576  -4257025  -4141298  -4086303  -4017017  -3953636  -3952384  -3925083  -4018959  -4159010  -4010909  -4096851  -4063242  -3756463  -3871157  -4094576  -4064802  -4045835  -3838929  -3934314  -3854926  -3520333  -3786760  -3850686  -3863303  -3857446  -3846595  -3874212  -3866463  -4020554  -3989141  -3732570  -3706843  -2820391  -1456008  -2430149  -3665851  -3841446  -3827215  -3817438  -3854099  -3621273  -3482215  -3510711  -3151107  -3384058  -3242074  -3537347  -3656000  -2892074  -1781322  -1420711  -796248  -230645  -165240  -69744  -4462  999000  999000  999000  999000  999000  999000  999000  -50238  -54466  -533500  -1229711  -1493149  -1538959 
 -5383222  -5379500  -5154200  -5407456  -5362282  -5358627  -5343344  -5394000  -5330282  -5353967  -5365155  -5242827  -5272144  -5166791  -5257709  -5318322  -5248227  -5245836  -5294144  -5291055  -5242591  -5249333  -5305336  -5122264  -5174567  -5254573  -5121136  -5074456  -5014927  -5078291  -4977122  -4992373  -5081000  -5075378  -5190364  -5191918  -5118900  -5013900  -4961691  -4841789  -4814018  -4763418  -4699967  -4739245  -4779782  -4865356  -4834582  -4829700  -4801322  -4468091  -4585882  -4272433  -4450945  -4615655  -4697144  -4728645  -4739945  -4836211  -4674100  -4722009  -4835856  -4901427  -4907027  -4900711  -4605991  -4682709  -4671067  -4471536  -4590982  -4681044  -4576564  -4626336  -4765989  -4910318  -4787645  -4877700  -4724736  -4819955  -4930300  -4859527  -4825809  -4840044  -4917427  -4826464  -4869233  -4895064  -4888618  -4831689  -4742000  -4745927  -4703467  -4543418  -4228091  -4466056  -4627900  -4597327  -4630378  -4787082  -4765600  -4642222  -4427845  -4278745  -4314678  -4539582  -4611427  -4496844  -4676745  -4658373  -4733167  -4746155  -4713109  -4736589  -4972427  -4888727  -4791756  -4740018  -4775191  -4627989  -4710518  -4719482  -4662433  -4566236  -4686064  -4742678  -4792300  -4731836  -4648311  -4617809  -4536555  -4710111  -4537155  -4343182  -4344200  -4395336  -4405909  -4487000  -4435845  -4255145  -4459111  -4683945  -4504845  -4384544  -4447036  -4360109  -4410300  -4310609  -4488436  -4539700  -4541945  -4456782  -4496300  -4326809  -4287364  -4140456  -4215200  -4271873  -4266189  -4259118  -4390700  -4279967  -4308836  -4123600  -4329611  -4370882  -3821864  -3778722  -4210200  -4152991  -4142267  -4178636  -4218718  -4130967  -4144064  -4113064  -4089256  -4041755  -4062182  -4012122  -4015855  -4074545  -4108978  -4136809  -3949064  -3878578  -4068327  -4004155  -3911767  -3947264  -4050273  -3921078  -4042564  -3923236  -3781678  -3634809  -3816373  -3845233  -3831036  -3827873  -3871089  -3938973  -3966991  -3960878  -3874018  -3794064  -3656520  -3568936  -3680536  -3744227  -3852691  -3846336  -3805100  -3642300  -3746791  -3890591  -3602291  -3480436  -3809036  -3736355  -3694482  -3327509  -2234409  -1515345  -1087473  -404027  -382155  -162736  -76064  -13970  999000  999000  999000  999000  999000  999000  999000  -365563  -507713  -1124809  -1696800  -2123145  -1850736 
 -5062667  -5330818  -5013400  -5363644  -5356609  -5344345  -5362111  -5342127  -5240627  -5188011  -5285845  -5267982  -5383956  -5327773  -5212400  -5192922  -5313545  -5319400  -5366833  -5414691  -5508155  -5296644  -5203782  -5131100  -5148911  -5235591  -5132518  -5089411  -5101264  -5090045  -5003022  -5000318  -5021582  -4999344  -5122809  -5116036  -5052144  -5035655  -4990327  -4919911  -4903391  -4775918  -4675289  -4726245  -4810782  -4822789  -4729755  -4696782  -4645033  -4612518  -4664327  -4499478  -4610491  -4801755  -4774289  -4757791  -4716955  -4754356  -4655655  -4774945  -4701667  -4804873  -4838364  -4817333  -4737600  -4785527  -4724244  -4528891  -4562618  -4556367  -4733600  -4661673  -4770844  -4902336  -4806136  -4870344  -4689127  -4728591  -4760278  -4898027  -4883509  -4910833  -4772636  -4919845  -4881889  -4953009  -4881445  -4775178  -4811418  -4963164  -4689289  -4833109  -4815427  -4736522  -4874927  -4737036  -4778122  -4612500  -4657191  -4573556  -4574664  -4534700  -4283711  -4342655  -4104445  -3897656  -4255300  -4371164  -4412733  -4400036  -4480364  -4578156  -4633609  -4753373  -4767444  -4578145  -4636527  -4700411  -4743364  -4759836  -4635911  -4593618  -4528718  -4503411  -4553091  -4526927  -4465300  -4484555  -4346273  -4489456  -4556055  -4451936  -4405800  -4348136  -4357018  -4450033  -4477782  -4265073  -4455800  -4398518  -4455218  -4485822  -4402027  -4389682  -4412689  -4364173  -4611709  -4561333  -4498436  -4381082  -4528400  -4414400  -4283209  -4376900  -4213400  -4234836  -4308556  -4260073  -4393627  -4240089  -4195273  -4243145  -4337733  -4302727  -4132900  -4061856  -4238255  -4183564  -4211167  -4190182  -4112373  -4149778  -4072118  -4173845  -4051078  -4048300  -3960618  -4062178  -4124436  -4182036  -4127867  -4104455  -3137836  -2261211  -3830109  -3528945  -3283167  -3841691  -3833936  -3989533  -4023000  -3944900  -3675456  -3645391  -3682945  -3892233  -3815527  -3812345  -3874678  -3954445  -3903645  -3947378  -3923645  -3905564  -3929950  -3887309  -3821791  -3741600  -3753536  -3873682  -3790845  -3692964  -3903964  -3541655  -3269673  -3383764  -3743709  -4038500  -3839827  -2715345  -1692109  -1118082  -335409  -245791  -283736  -129009  -80000  -23420  999000  999000  999000  999000  999000  999000  -138065  -694691  -781402  -1294373  -1851191  -2336700  -2526718 
 -5041202  -5229917  -5281083  -5305758  -5335083  -5350678  -5333121  -5290777  -5261769  -5134343  -5178752  -5160347  -5286283  -5355372  -5395074  -5321485  -5222545  -5183603  -5283596  -5281405  -5579322  -5432354  -5198760  -5085785  -5195242  -5108231  -5157372  -5093374  -5105512  -5137579  -5018081  -4981967  -5017157  -5016182  -5089554  -4899562  -4889949  -4928529  -4985488  -4898747  -4989669  -4922562  -4867828  -4873529  -4868537  -4896152  -4822256  -4726496  -4658162  -4583281  -4684752  -4666556  -4642215  -4667298  -4751667  -4770174  -4745025  -4638697  -4671364  -4658248  -4686051  -4747893  -4851818  -4782556  -4826157  -4816942  -4677172  -4591769  -4609314  -4683232  -4667802  -4690430  -4800323  -4802934  -4819066  -4792758  -4747248  -4735603  -4788313  -4827339  -4730240  -4817778  -4670851  -4808777  -4857333  -4885554  -4734711  -4775778  -4881554  -4951149  -4575889  -4465289  -4651174  -4793202  -4792132  -4767628  -4832222  -4489587  -4803959  -4736202  -4653240  -4714736  -4680758  -4412868  -4095884  -4270263  -4302339  -4382083  -4378465  -4582950  -4735281  -4652333  -4659893  -4737355  -4673141  -4585339  -4645380  -4652990  -4630198  -4643421  -4605030  -4582719  -4553628  -4507283  -4457727  -4239603  -4216535  -4227636  -4222504  -4221949  -4166554  -4365959  -4314444  -4392686  -4453893  -4144040  -4382967  -4439050  -4459707  -4473727  -4441678  -4604364  -4343992  -4524562  -4662222  -4571975  -4533678  -4389091  -4512421  -4489306  -4472283  -4328496  -4226207  -4436616  -4239570  -4317636  -4311374  -4442066  -4293876  -4166939  -4183099  -4268446  -4219414  -4227893  -4233537  -4196970  -4111810  -4134413  -4166303  -4194893  -4223240  -4225747  -4201678  -4195793  -4095313  -4050521  -3901380  -3963444  -4098107  -4252240  -4230828  -4079752  -3791388  -3717980  -4017587  -3697471  -3954505  -3650661  -3477331  -3542889  -3872066  -3938041  -3897222  -3820380  -3698289  -3974929  -3929455  -3864050  -3787929  -3919669  -3952066  -3910717  -3872124  -3925554  -3946900  -3878273  -3871339  -3841107  -3741430  -3759702  -3702554  -3537926  -3383512  -3074554  -3128041  -3417777  -3704727  -3865942  -2888149  -1477479  -749926  -476603  -180314  -241405  -161306  -108240  -78190  -31523  999000  999000  999000  999000  999000  -21313  -200920  -505826  -790455  -1217818  -1955975  -2127289  -2087339 
 -5443489  -5404445  -5396727  -5384489  -5373036  -5324355  -5296567  -5276291  -5190800  -5197767  -5230764  -5207136  -5287700  -5298100  -5169345  -5302833  -5291173  -5314173  -5211533  -5235045  -5139755  -5098800  -4853327  -5068800  -5146889  -5027318  -5221864  -5083233  -4966018  -5075245  -4948356  -5099418  -5040473  -4951544  -4960364  -4922891  -4969544  -4916527  -4969418  -4829011  -4845791  -4852073  -4894522  -4852445  -4825291  -4902200  -4771145  -4671000  -4567033  -4619527  -4583209  -4624356  -4580336  -4511618  -4636278  -4675855  -4732064  -4612111  -4699018  -4626727  -4647356  -4766255  -4748791  -4766200  -4579527  -4606600  -4533667  -4688009  -4705282  -4646222  -4684573  -4775073  -4800944  -4776509  -4815973  -4799878  -4685873  -4646064  -4758133  -4771773  -4768236  -4705456  -4648873  -4806973  -4853144  -4694491  -4600391  -4706244  -4687136  -4716982  -4701622  -4583900  -4427145  -4788778  -4592745  -4726264  -4512078  -4818027  -4882073  -4823856  -4718436  -4814991  -4723111  -4591764  -4411618  -4455067  -4558818  -4647200  -4436644  -4584418  -4788364  -4680356  -4759800  -4862927  -4701222  -4669509  -4808427  -4750322  -4794982  -4730982  -4706056  -4733336  -4670473  -4616389  -4500100  -4560464  -4519044  -4506145  -4498045  -4460733  -4255755  -4168409  -4348956  -4387645  -4297673  -4181278  -4138582  -4282491  -4316367  -4464227  -4543745  -4451689  -4395518  -4473909  -4183000  -4325109  -4360164  -4482389  -4578664  -4437182  -4407956  -4307700  -4081518  -4319211  -4344155  -4280009  -4351300  -4430955  -4311609  -4197367  -4284355  -4275627  -4196556  -4247100  -4188764  -4126167  -4045445  -4066936  -4136978  -4325309  -4398745  -4306911  -4159573  -4169164  -4172011  -4062136  -3983082  -3825678  -4143318  -4224427  -4282811  -4147227  -3352700  -3959133  -4114364  -4173127  -4204811  -4139445  -3938218  -3656900  -3763555  -3881873  -4031911  -3977982  -3968382  -4018667  -4067718  -4081682  -3855344  -3817200  -3899555  -3875889  -3813009  -3846645  -3847660  -3853273  -3873200  -3830073  -3781627  -3734964  -3574927  -3502155  -3492873  -3339700  -3458509  -3956473  -3960882  -3100091  -1956745  -738764  -578918  -243509  -191818  -141355  -114236  -93027  -63982  -25753  999000  999000  999000  999000  999000  -78175  -232229  -359670  -797778  -1427336  -1888555  -2125927  -2145936 
 -5430233  -5459473  -5454782  -5379789  -5395818  -5395418  -5352211  -5348755  -5352391  -5359956  -5351773  -5417700  -5383033  -5345227  -5308909  -5275878  -5254036  -5256436  -5179167  -5265173  -5189382  -5126211  -4977773  -4930355  -5088189  -5008727  -5142191  -5121733  -5101900  -5106073  -5096578  -5067855  -5001482  -4902011  -4951882  -4870100  -4931422  -4929300  -4878073  -4775000  -4770809  -4775791  -4851700  -4858255  -4884818  -4878578  -4604518  -4632027  -4704667  -4800491  -4722945  -4715533  -4689718  -4609400  -4679956  -4717191  -4750400  -4617678  -4809709  -4656900  -4759433  -4785173  -4740936  -4778400  -4714273  -4636073  -4674922  -4662264  -4698318  -4719311  -4806436  -4731573  -4721100  -4702345  -4769227  -4783767  -4752609  -4714764  -4759567  -4782673  -4748109  -4671044  -4725436  -4727164  -4783011  -4567264  -4631700  -4551122  -4509327  -4543291  -4770000  -4789718  -4416645  -4487011  -4569000  -4704964  -4509544  -4738973  -5006336  -4895300  -4782564  -4537282  -4706522  -4771900  -4639300  -4548178  -4513036  -4604582  -4778578  -4756818  -4791736  -4735667  -4855364  -4891064  -4765878  -4684873  -4720355  -4782467  -4676300  -4682873  -4661133  -4693764  -4716291  -4679900  -4637055  -4616145  -4649044  -4738245  -4672518  -4629600  -4542082  -4480409  -4440733  -4455909  -4490682  -4282000  -4273164  -4464500  -4331067  -4478209  -4470055  -4438644  -4483945  -4515000  -4495778  -4496745  -4696200  -4715711  -4506300  -4398273  -4342278  -4408791  -4198655  -4524656  -4318482  -4194091  -4474733  -4524864  -4407282  -4316456  -4358427  -4245745  -4228922  -4292755  -4314055  -4345922  -4188764  -4194955  -4079622  -4067718  -4247245  -4365622  -4037009  -4113927  -4140144  -4176936  -4152927  -3979189  -4254682  -4235182  -4132156  -4075482  -3585536  -3994889  -4173427  -4193809  -4234967  -4242818  -4136218  -3967344  -3987209  -3931427  -3985911  -4069027  -4008518  -4027189  -4035500  -3806982  -3591078  -3888355  -3899800  -3888467  -3833018  -3812100  -3763890  -3839791  -3835382  -3720627  -3736882  -3660164  -3896055  -3736109  -3478809  -3526582  -3610345  -3791209  -3759727  -2665191  -1718618  -1011573  -316527  -137418  -158627  -107518  -93700  -72982  -45500  -18434  999000  999000  999000  999000  -62333  -149853  -335027  -356309  -956545  -1316873  -1693691  -1885645  -1525218 
 -5437616  -5414397  -5452347  -5469808  -5483934  -5546190  -5549414  -5424479  -5452388  -5319707  -5354157  -5329835  -5324051  -5346843  -5287083  -5213515  -5234554  -5222562  -5210222  -5177653  -5174917  -5103566  -5015215  -5086347  -5115465  -5070587  -5094942  -5137293  -5051694  -5087769  -5181737  -5029033  -5015967  -4932970  -4897488  -4976050  -5008465  -4976587  -5007174  -4858889  -4868107  -4841554  -4858657  -4802165  -4781760  -4727152  -4676438  -4694769  -4675404  -4719727  -4939636  -4909747  -4699347  -4645554  -4676434  -4842231  -4736140  -4787192  -4859843  -4863017  -4787253  -4789802  -4881248  -4872939  -4816116  -4861298  -4811162  -4780893  -4712091  -4754747  -4815446  -4884893  -4810121  -4836512  -4867190  -4857970  -4741686  -4695975  -4725798  -4682992  -4724000  -4753354  -4744496  -4767587  -4669919  -4614091  -4524942  -4569303  -4440835  -4313174  -4574323  -4520835  -3446504  -3587778  -4508744  -4820603  -4519101  -4170843  -4645298  -4824394  -4745025  -4796595  -4668879  -4777793  -4638025  -4547253  -4433711  -4716074  -4764980  -4757901  -4754455  -4704667  -4740686  -4727372  -4763515  -4783868  -4702397  -4730778  -4721273  -4779876  -4725455  -4596083  -4740785  -4673646  -4685719  -4621430  -4738404  -4669719  -4554248  -4585232  -4617314  -4665967  -4182737  -4349207  -4351322  -4622535  -4594174  -4674562  -4309667  -4365818  -4345769  -4245475  -4543595  -4467289  -4368515  -4572165  -4551430  -4569010  -4397529  -4499810  -4137232  -3926116  -4225446  -4243667  -4256099  -4245140  -4392455  -4359298  -4369802  -4293970  -4293545  -4238802  -4225495  -4273372  -4191661  -3939646  -3819471  -4089430  -4103101  -2602479  -3181182  -4251889  -3837190  -4053421  -4238747  -4216744  -4169669  -4112576  -4331711  -4162636  -4009737  -4114595  -4045314  -4123848  -4065190  -4070124  -4081172  -4010347  -4133694  -4087576  -4151331  -4061636  -4031061  -4001157  -4012240  -3921909  -3983702  -4060744  -3895121  -3871851  -3822438  -3900949  -3866967  -3805537  -3876200  -3800331  -3659636  -3576207  -3730860  -3695380  -3622033  -3569512  -3387884  -3414777  -3684215  -3301909  -2662653  -2041273  -1400446  -729554  -252975  -158083  -120231  -97645  -78926  -62331  -33839  -9345  999000  999000  999000  999000  -113149  -94684  -510265  -958132  -1230562  -1456612  -1901248  -1696950  -1195050 
 -5328889  -5399835  -5466240  -5483131  -5510388  -5449917  -5378374  -5374826  -5376868  -5297889  -5343926  -5316537  -5350960  -5332636  -5258455  -5298051  -5166165  -5232256  -5170949  -5089289  -5127421  -5035566  -5023975  -5153165  -5189051  -5194438  -5177471  -5143899  -5061884  -5059496  -5079606  -4933645  -4968975  -5034414  -5046744  -5076157  -5021253  -4974091  -5013901  -4970465  -4966777  -4884628  -4866242  -4760116  -4672843  -4737010  -4682992  -4686727  -4816465  -4639479  -4828818  -4867354  -4768736  -4715165  -4711869  -4614545  -4629917  -4750798  -4779008  -4791479  -4748051  -4649488  -4781174  -4784131  -4967025  -4820926  -4793040  -4765273  -4729678  -4768576  -4787719  -4817058  -4882727  -4982066  -5037455  -4867960  -4845636  -4787826  -4812919  -4695860  -4574355  -4690111  -4725702  -4591050  -4632697  -4502975  -4591066  -4504051  -4528264  -4588157  -4691606  -4636760  -4563438  -4511848  -4554207  -4556843  -4632465  -4605256  -4719331  -4559889  -4762570  -4758587  -4644788  -4692810  -4634909  -4578667  -4459140  -4652868  -4764838  -4654835  -4692107  -4740071  -4863736  -4766322  -4751838  -4778868  -4759860  -4786374  -4629438  -4768554  -4768697  -4722851  -4677463  -4665657  -4724686  -4205884  -4515424  -4659727  -4591446  -4485818  -4588132  -4608074  -4219455  -4401364  -4438975  -4433293  -4762843  -4588926  -4556737  -4370942  -4631636  -4690848  -4508273  -4411438  -4488182  -4513603  -4614636  -4471737  -4371934  -4501240  -4389990  -4216298  -4358248  -4306697  -4221983  -4445694  -4304495  -4423645  -4137446  -4160576  -4332455  -4280752  -4222444  -4411504  -4104967  -3808707  -2600562  -3182719  -4121404  -3552446  -3614545  -4024636  -3850736  -4000702  -4118707  -4152909  -4100256  -4068869  -4106256  -4031430  -4013626  -4159719  -4055397  -4035091  -4093107  -3973256  -3969152  -4011463  -4066603  -4018434  -4115025  -4071281  -3962515  -4020942  -3966463  -3907515  -3972579  -3982066  -3854758  -3717000  -3783719  -3842838  -3797942  -3804463  -3889591  -3729488  -3691190  -3705248  -3510066  -2981463  -1932521  -2686901  -3146975  -3414818  -3468116  -2612636  -1820645  -1308364  -600388  -166182  -127347  -107149  -92471  -75835  -68380  -43112  -24511  999000  999000  999000  999000  999000  -145278  -278893  -483289  -1053661  -1684372  -2214223  -1892926  -1347446  -902281 
 -5425758  -5383554  -5426140  -5450505  -5400537  -5420769  -5357293  -5266653  -5363587  -5313727  -5295752  -5305967  -5352071  -5261000  -5252678  -5247818  -5252471  -5226983  -5261071  -5164934  -5019570  -5057747  -5178438  -5246661  -5155646  -5145074  -5162421  -5166152  -5167529  -5167793  -5111626  -5080496  -5026223  -5223596  -5158769  -5152248  -4988909  -4925537  -5112140  -5069545  -4989901  -4881545  -4756333  -4690025  -4778851  -4695798  -4572240  -4600273  -4687586  -4616537  -4694818  -4815717  -4885694  -4843587  -4769646  -4639793  -4610909  -4703051  -4675347  -4710083  -4709960  -4757050  -4693388  -4579586  -4737727  -4872959  -4739293  -4709240  -4722793  -4681646  -4749430  -4761818  -4779707  -4826512  -4865570  -4925899  -4833413  -4778818  -4771586  -4753421  -4700479  -4807020  -4732388  -4612860  -4506515  -4501364  -4551694  -4489121  -4718438  -4662463  -4654485  -4687545  -4565678  -4573909  -4432091  -4281917  -4537798  -4609818  -4796388  -4541172  -4621983  -4630231  -4499929  -4617157  -4598157  -4557677  -4534198  -4365405  -4531434  -4366694  -4621455  -4733899  -4797785  -4741579  -4782566  -4763298  -4763066  -4730222  -4628744  -4708140  -4744515  -4759372  -4699132  -4576404  -4672157  -4293488  -4316889  -4663355  -4533223  -4442505  -4515992  -4501744  -4198192  -4528620  -4465992  -4323232  -4619917  -4496785  -4485465  -4424587  -4455331  -4592879  -4360570  -4438091  -4390616  -4366099  -4406818  -4095091  -4398107  -4438264  -4502758  -4293636  -4373917  -4233556  -4167107  -4307917  -4177424  -3930455  -4379645  -4314424  -4240471  -4204975  -4223535  -4142091  -4028471  -3848576  -3731975  -3829298  -3845919  -3843678  -3619975  -3775182  -3188802  -3582050  -3879606  -4070132  -3972777  -3998152  -4003744  -4031620  -3961919  -4058529  -4098818  -4039354  -4072893  -3952843  -3927162  -3950281  -3995198  -3993424  -4060851  -3982198  -3792535  -3948562  -3976289  -3958121  -3968124  -3887661  -3735000  -3778521  -3790165  -3780030  -3720380  -3815364  -3838918  -3741207  -3777835  -3577785  -3443868  -3280273  -2965264  -3158719  -3252107  -3534240  -2900364  -2024413  -1601595  -805149  -156793  -77917  -72645  -64983  -57281  -45172  -32842  999000  999000  999000  999000  999000  999000  999000  -211406  -588595  -883207  -1668760  -2310818  -1624025  -1361843  -1154950  -675149 
 -5395879  -5425686  -5474198  -5484313  -5438496  -5386479  -5320808  -5362264  -5380058  -5403505  -5321289  -5181744  -5218475  -5206099  -5247017  -5251737  -5168446  -5260306  -5062394  -5111992  -4947397  -5383273  -5317628  -5334769  -5099737  -5198132  -5218248  -5107737  -5126050  -5122992  -5131657  -5230066  -5012843  -4894465  -4605124  -4991231  -4839202  -4943339  -4990174  -4964354  -4945041  -4765529  -4828414  -4736818  -4696314  -4654818  -4581769  -4614430  -4617172  -4643479  -4744479  -4722162  -4908140  -4917471  -4727939  -4755388  -4723471  -4799646  -4648595  -4658950  -4751697  -4715959  -4657471  -4548010  -4728901  -4846851  -4746232  -4767033  -4644256  -4655879  -4656306  -4745884  -4775828  -4755248  -4846983  -4726717  -4670769  -4606405  -4447505  -4343975  -4695008  -4826040  -4729264  -4651223  -4683727  -4711116  -4725769  -4609505  -4621372  -4528653  -4530899  -4694479  -4560636  -4518313  -4503760  -4328000  -4597495  -4335231  -4793975  -4653980  -4683314  -4693570  -4604424  -4624107  -4619612  -4562293  -4505380  -4661661  -4480939  -4516926  -4658901  -4646596  -4586868  -4726942  -4800899  -4788347  -4665909  -4755394  -4697116  -4726512  -4677828  -4734975  -4649289  -4583970  -4600430  -4540760  -4602737  -4528405  -4432388  -4498354  -4492595  -4505521  -4299788  -4542017  -4477149  -4461434  -4538017  -4536504  -4478253  -4541860  -4324140  -4481889  -4470512  -4401818  -4473869  -4539248  -4511851  -4344980  -4355248  -4463198  -4478263  -4421058  -4393116  -4029475  -4088446  -4109917  -4193313  -4471802  -4319099  -4292121  -4281843  -4269752  -4164717  -3816719  -4228876  -3984960  -3930421  -3989281  -3952394  -3813587  -3905678  -3886838  -3778215  -3918950  -3922162  -3955430  -3837355  -3902717  -3978818  -3997405  -3966960  -3928339  -3986438  -3995485  -4026000  -4043678  -3949323  -3909884  -4007760  -4073960  -4012074  -3751066  -3660152  -3969347  -3911430  -3824697  -3930281  -3739430  -3556909  -3656174  -3671463  -3723889  -3816388  -3846950  -3803918  -3705000  -3633612  -3528074  -3818909  -3930182  -3584719  -3439041  -3640248  -3448165  -2447248  -2163554  -1489934  -353934  -94967  -75587  -53942  -37504  -23480  -10483  999000  999000  999000  999000  999000  999000  999000  -81596  -498570  -837380  -1469041  -1798727  -1574719  -1294818  -1156421  -961702  -649488 
 -5332323  -5411455  -5440430  -5461253  -5452479  -5385149  -5364535  -5381818  -5396926  -5348798  -5341488  -5259702  -5202030  -5213702  -5224339  -5254545  -5397620  -5305041  -5161586  -5170479  -5089967  -5531051  -5629355  -5152818  -5034889  -5114744  -5214744  -5011727  -5046719  -5028149  -4995717  -4911785  -5015306  -5027707  -4979934  -4920182  -4790333  -4738719  -4759645  -4814838  -4775545  -4735430  -4742838  -4779934  -4847645  -4700576  -4730752  -4759372  -4825646  -4658884  -4694669  -4662687  -4799496  -4766421  -4780838  -4789669  -4742769  -4782717  -4705116  -4765413  -4753818  -4627876  -4643405  -4576313  -4765066  -4726496  -4855303  -4769835  -4710041  -4716293  -4755174  -4723347  -4674717  -4663843  -4694868  -4625212  -4673678  -4694636  -4628596  -4613909  -4830488  -4410949  -4545215  -4604752  -4727020  -4731050  -4660033  -4634616  -4451165  -4607711  -4605333  -4694413  -4533909  -4790717  -4542488  -4635661  -4462263  -4691983  -4692752  -4577909  -4658223  -4498752  -4625727  -4606322  -4638711  -4522778  -4455339  -4229926  -4437182  -4750471  -4654636  -4720434  -4479909  -4614694  -4528727  -4675223  -4590223  -4699293  -4578347  -4668240  -4605596  -4687388  -4649372  -4562323  -4548653  -4472223  -4489586  -4654529  -4752207  -4676323  -4422248  -4698438  -4558242  -4402909  -4397165  -4401869  -4531264  -4525628  -4438333  -4463446  -4461463  -4555434  -4339901  -4431793  -4504384  -4547860  -4533554  -4460182  -4473190  -4399207  -4417636  -4362512  -4258612  -4150869  -4095017  -4098397  -4162808  -4152397  -4065959  -4116525  -4255950  -4262950  -4156747  -4078248  -4157777  -3797071  -3899306  -3965760  -3996384  -3829860  -3749397  -3923071  -4095661  -4336909  -4187525  -4138025  -4074000  -4085818  -4046504  -3961645  -3897758  -3944694  -3974620  -3931636  -4006802  -4073926  -4070455  -4071661  -4094306  -4155263  -4107248  -3795587  -3433707  -3771421  -3917636  -3840303  -3878388  -3828992  -3694970  -3692843  -3626645  -3662717  -3815339  -3809868  -3727218  -3663256  -3520397  -3726397  -3657529  -3528190  -3393107  -3607273  -3704314  -3242992  -2437603  -2112140  -545645  -150521  -50875  -36363  -27025  -11648  999000  999000  999000  999000  999000  999000  999000  -2349  -15826  -256810  -785231  -1230281  -1578231  -1593810  -1490413  -1386240  -1156140  -909678  -436959 
 -5345899  -5370860  -5387388  -5405404  -5359934  -5281570  -5343131  -5403041  -5348727  -5365051  -5322744  -5232074  -5183374  -5229744  -5213033  -5327768  -5324967  -5202545  -5234687  -5144347  -5161934  -5197000  -5077174  -4818165  -5018859  -5160182  -4944463  -5061737  -5037686  -4942355  -4908919  -4775215  -4876364  -4831889  -4853198  -4775430  -4809414  -4784686  -4790446  -4718222  -4789942  -4776983  -4792293  -4883025  -4980388  -4755859  -4811455  -4841628  -4762677  -4661132  -4704413  -4715677  -4740008  -4756231  -4812808  -4788256  -4830240  -4829141  -4744438  -4879653  -4798172  -4844025  -4750678  -4823859  -4762512  -4681678  -4869737  -4811843  -4782570  -4739737  -4720149  -4734893  -4706202  -4751818  -4810628  -4634828  -4469165  -4732339  -4821040  -4213711  -4606711  -4674172  -4604207  -4463653  -4522949  -4659215  -4652719  -4499646  -4520950  -4578661  -4554525  -4554529  -4528719  -4672020  -4548446  -4435967  -4140535  -4501810  -4723537  -4619596  -4687256  -4557264  -4588222  -4525421  -4542248  -4142909  -4533322  -4683174  -4547879  -4668273  -4662835  -4707869  -4567488  -4602157  -4430949  -4749248  -4694008  -4665626  -4608074  -4695785  -4478061  -4567835  -4544421  -4619444  -4478058  -4381570  -4431455  -4502810  -4511620  -4522505  -4575686  -4623008  -4627677  -4421446  -4440025  -4421465  -4552669  -4488174  -4421273  -4515843  -4508041  -4469010  -4370107  -4381058  -4465758  -4506207  -4421240  -4541747  -4479207  -4509967  -4386990  -4296826  -4321702  -4140354  -4213636  -4191504  -4079374  -4235223  -4123545  -4143374  -4172116  -3959446  -3967172  -4340702  -4099917  -3653192  -4055322  -4025719  -4046404  -4160207  -3870595  -3986758  -4189058  -4332231  -4351253  -4332909  -4227355  -4129879  -4207711  -3958562  -3802485  -3669702  -3651231  -3555677  -3707248  -3996215  -4062828  -4036066  -4056182  -4131061  -4014207  -3925537  -3944909  -3904818  -3948339  -3967253  -3901570  -3846620  -3780273  -3707719  -3457198  -3527980  -3783455  -3812008  -3785636  -3722777  -3558198  -3490273  -3230884  -3087174  -3468884  -3891554  -3590752  -2793521  -2266165  -682388  -79537  -63416  -13800  -8321  -5257  -951  999000  999000  999000  999000  999000  999000  999000  -29849  -435635  -917678  -1398091  -1691909  -1740603  -1613107  -1491587  -1289719  -938066  -322959  -42835 
 -5415283  -5420273  -5493388  -5542535  -5452628  -5396099  -5355172  -5498446  -5308595  -5389071  -5407380  -5336950  -5231586  -5254281  -5272231  -5218758  -5261025  -5208372  -5210303  -5245785  -5224843  -5183374  -5199397  -4995612  -5076818  -5148760  -5164322  -5056424  -5030017  -4830579  -4874778  -4471570  -4672793  -4795141  -4845446  -4780198  -4810646  -4839835  -4837331  -4844010  -4860264  -4866587  -4849980  -4774810  -4883512  -4905374  -4771669  -4777446  -4916232  -4774355  -4710636  -4730545  -4777769  -4795521  -4844505  -4910207  -4722727  -4797808  -4829388  -4782174  -4836465  -4896835  -4783041  -4765768  -4733182  -4818140  -4894182  -4915636  -4792669  -4732818  -4698488  -4863339  -4764081  -4721058  -4740702  -4747667  -4916223  -4898777  -5039657  -4731066  -4679008  -4580515  -4578322  -4594306  -4490394  -4501430  -4547165  -4518697  -4494686  -4488331  -4469010  -4525298  -4511231  -4569687  -4534380  -4500554  -4439515  -4562521  -4713240  -4618586  -4598140  -4504289  -4571646  -4474769  -4475488  -4477030  -4505264  -4471727  -4435253  -4375364  -4676694  -4605434  -4641017  -4583132  -4589646  -4593364  -4634438  -4585919  -4679231  -4843686  -4370121  -4268157  -4284215  -4428889  -4432909  -4294694  -4396869  -4526760  -4480893  -4686919  -4529793  -4474207  -4467192  -4587124  -4437818  -4507323  -4578124  -4661008  -4480848  -4606942  -4533380  -4264404  -4487198  -4353851  -4439990  -4421091  -4452678  -4450545  -4346364  -4388736  -4383414  -4338521  -4377579  -4157162  -4179182  -4288405  -4087879  -4008653  -4185810  -4172384  -4163099  -4091140  -3950485  -4121504  -4227686  -4009970  -4031281  -3987215  -3974828  -4043653  -4111934  -4272929  -4315157  -4159281  -4243424  -4189074  -4028364  -3865242  -3913339  -4049884  -4145232  -4039140  -4186595  -4276788  -4030909  -3926041  -4243727  -4226529  -4101372  -4106364  -4201099  -3991579  -3956222  -3885744  -3953851  -4092535  -3977438  -3843669  -3749525  -3804430  -3689240  -3510202  -3599653  -3802694  -3746527  -3652529  -3535190  -3542669  -3470339  -3784421  -3920264  -3752240  -2422752  -1345694  -683033  -83400  -40940  -27000  999000  999000  999000  999000  999000  999000  999000  999000  999000  999000  -28654  -258851  -1081562  -1717198  -1862851  -1793545  -1717992  -1597669  -1403645  -1115058  -361066  -38628  -14614 
 -5362475  -5453430  -5466777  -5440232  -5389438  -5344826  -5454505  -5492835  -5404074  -5395859  -5442124  -5246785  -5315111  -5264083  -5171455  -5099899  -5157628  -5204595  -5240970  -5291860  -5275851  -5030313  -5139430  -5050612  -4820889  -4980281  -4935694  -4990798  -4974058  -4862438  -4925212  -4938000  -4881545  -4949525  -4832132  -4843579  -4874192  -4942950  -4908198  -4800010  -4753967  -4813496  -4954172  -4937628  -4935926  -4890242  -4734405  -4770165  -4844475  -4912256  -4803157  -4819717  -4876793  -4943802  -4771485  -5033240  -4913620  -4826061  -4902430  -4840413  -4914061  -4909909  -4904273  -4794606  -4805719  -4703909  -4582758  -4729603  -4818752  -4807414  -4766066  -4585636  -4243182  -4623736  -4657628  -4489545  -4781587  -4750760  -4822061  -4663207  -4656893  -4539596  -4558777  -4554835  -4517545  -4561860  -4609149  -4583455  -4635041  -4586711  -4513646  -4517818  -4571694  -4572081  -4383504  -4429975  -4297202  -4213504  -4779455  -4601081  -4351140  -4407273  -4540182  -4411587  -4408281  -4539919  -4378157  -4490595  -4507808  -4507116  -4466793  -4424848  -4529033  -4456074  -4392980  -4415884  -4374992  -4422859  -4469810  -4594256  -4382778  -4561364  -4608430  -4528889  -4329521  -4286463  -4401333  -4492595  -4462198  -4506273  -4444992  -4572165  -4543768  -4634364  -4682107  -4673162  -4614727  -4510479  -4572061  -4425017  -4365851  -4426051  -4213124  -4039983  -4450859  -4460719  -4429942  -4289394  -4421884  -4414149  -4417747  -4360182  -4439140  -4384182  -4328124  -4298231  -4222919  -4289777  -4197612  -4137768  -4121521  -4072207  -3526970  -4130752  -4158917  -3949687  -3910909  -3976008  -3966556  -3911099  -3975355  -4008202  -3936041  -3826818  -3876717  -3943802  -3939000  -3950283  -4064430  -4121860  -4025859  -3994496  -4005901  -4182061  -4083554  -3938372  -3954192  -3832868  -3865719  -3835677  -4008041  -4155653  -4349121  -4256736  -4007612  -3965707  -3904083  -3828975  -3621535  -3830579  -3760744  -3691455  -3700174  -3769281  -3697718  -3686306  -3824967  -3942702  -3984686  -4045702  -3217479  -2253868  -978686  -360413  -80759  -40750  999000  999000  999000  999000  999000  999000  999000  999000  999000  999000  999000  -12081  -200910  -897545  -1625793  -1893140  -1896884  -1805025  -1673339  -1503678  -1123917  -410364  -42958  -6500  -13914 
 -5395707  -5420215  -5497628  -5556212  -5532620  -5508554  -5519616  -5494256  -5345364  -5290495  -5351975  -5309248  -5264859  -5252760  -5168587  -5101859  -5169215  -5158430  -5167626  -4953372  -4847149  -5050242  -5124471  -5097107  -5027727  -5020504  -4978017  -5069687  -5108570  -4989504  -4875848  -4952256  -4934579  -4863596  -4399562  -4628645  -4668313  -4713165  -4895041  -4866535  -4873967  -4915893  -4943949  -4941917  -4921653  -4911707  -4828190  -4858760  -4802687  -4771818  -4781223  -4595717  -4584240  -5006050  -4562192  -5030851  -5048992  -4932283  -4946488  -4950810  -4558091  -4669760  -4940967  -4718010  -4780802  -4646901  -4396212  -4682347  -4787876  -4807101  -4621099  -4538851  -4303040  -4403124  -4707752  -4627404  -4729612  -4862347  -4717212  -4585901  -4734339  -4502051  -4657967  -4634339  -4621838  -4685959  -4620165  -4588576  -4680628  -4631264  -4561727  -4545223  -4543463  -4461283  -4388653  -4303479  -4419162  -4331926  -4364661  -4322283  -4410281  -4391000  -4546465  -4473207  -4438140  -4494253  -4628000  -4482694  -4494030  -4477058  -4476934  -4498970  -4613058  -4165711  -4352404  -4065818  -4123149  -4248798  -4350174  -4355281  -4436384  -4667628  -4632157  -4492808  -4407645  -4278636  -4551293  -4393388  -4358091  -4395000  -4472760  -4516479  -4557051  -4565099  -4588992  -4512475  -4641950  -4551496  -4462545  -4466678  -4346554  -4309152  -4364388  -4367347  -4360657  -4392785  -4379785  -4274152  -4365000  -4135455  -4457818  -4374463  -4395785  -4366646  -4361331  -4249165  -4208283  -4254529  -4201744  -4229010  -4267620  -4182504  -4073242  -4167347  -4403562  -4241798  -4135413  -4103190  -4248323  -4217512  -4235529  -4217444  -4112289  -4011744  -4055414  -3962760  -3972570  -4002949  -4050008  -4029512  -4077333  -4069760  -4107843  -4072808  -4066223  -3995372  -3836182  -3897909  -3814008  -3620566  -3680802  -3871033  -3979505  -3972413  -4059190  -3906303  -3778430  -3707380  -3723990  -3774777  -3763223  -3668919  -3701231  -3734421  -3864227  -3859058  -3394702  -4136893  -3833967  -2599777  -1369545  -492669  -117240  -57286  999000  999000  999000  999000  999000  999000  999000  999000  999000  999000  999000  999000  -142625  -376198  -1037092  -1464463  -1688942  -1905612  -1872455  -1812008  -1595992  -1245306  -536727  -14425  -1538  999000  999000 
 -5434727  -5425240  -5482975  -5507606  -5483347  -5504769  -5532071  -5533099  -5398893  -5276778  -5213686  -5132149  -5151131  -5185380  -5098595  -5083313  -5131355  -5097521  -5195121  -5151868  -5056645  -5075535  -5090405  -5159669  -5129960  -5134917  -5108893  -5133717  -4918711  -5049950  -5066798  -4970777  -4941752  -4808747  -4495041  -4650934  -4765596  -4712074  -4828975  -4864343  -4863165  -4859091  -4908374  -4970165  -4930000  -4920949  -5057281  -4881496  -4983364  -4887314  -4750917  -4716030  -4249463  -4314645  -4867091  -5017752  -4606868  -4899414  -5065355  -5029231  -4685576  -4085273  -4636810  -4481283  -4637562  -4625512  -4735475  -4849512  -4849562  -4816293  -4889826  -4704793  -4511869  -4481372  -4847074  -4826677  -4822240  -4783322  -4803535  -4789091  -4611917  -4741313  -4596512  -4615132  -4693818  -4630669  -4650785  -4600525  -4568736  -4425364  -4473495  -4538719  -4450413  -4448263  -4465537  -4469826  -4274778  -4366603  -4512587  -4532475  -4740545  -4508041  -4536061  -4546620  -4458628  -4497323  -4492992  -4409264  -4560343  -4615421  -4315843  -4290131  -4457893  -4276215  -4467636  -4516099  -4401793  -4502313  -4614537  -4587322  -4300475  -4443000  -4527099  -4574152  -4231612  -4129463  -4654465  -4442942  -4321992  -4219051  -4408802  -4281306  -4459879  -4687719  -4696843  -4758162  -4660628  -4601322  -4512172  -4530603  -4432256  -4330384  -4329273  -4364529  -4366273  -4384851  -4415926  -4347576  -4414198  -4296289  -4325495  -4280289  -4290140  -4349162  -4404223  -4300347  -4244404  -4432537  -4271017  -4364768  -4342628  -4113182  -4136919  -3438380  -4071826  -4380535  -4296182  -4267876  -4236253  -4190636  -4162545  -3991010  -4022140  -4084653  -4108414  -4054645  -4084529  -4061606  -4011421  -4028322  -4149293  -4027702  -4101860  -4106323  -4122992  -3971744  -3843970  -3855893  -3840595  -3932495  -3871752  -3808802  -3740606  -3659595  -3708058  -3756606  -3708612  -3742223  -3732929  -3668256  -3701702  -3716303  -3755612  -3920364  -3973773  -4000355  -4144843  -4041017  -2985504  -1800909  -777355  -214474  -57305  999000  999000  999000  -41412  999000  999000  999000  999000  999000  999000  999000  999000  999000  -325453  -716959  -1045008  -1179500  -1757273  -1858256  -1745802  -1546008  -1547917  -1072554  -182256  -1230  999000  999000  999000 
 -5417293  -5495033  -5478347  -5462141  -5411240  -5382694  -5484313  -5499240  -5365372  -5322091  -5264744  -5224372  -5189475  -5147868  -4982314  -5146313  -5115074  -5084322  -5163141  -5130074  -5128140  -5130646  -5138240  -5138826  -5060838  -5124339  -5086554  -5050717  -5053438  -4904165  -4828525  -4922074  -4776331  -4657556  -4615521  -4666736  -4787091  -4831694  -4763603  -4902495  -4990231  -4981281  -5004162  -4888314  -4912273  -4937091  -4854868  -4783992  -4863859  -4864074  -4791818  -4745899  -4988645  -4772537  -4401929  -4745124  -4693174  -4634434  -4951843  -5053669  -4908111  -4934008  -4970562  -4890808  -4781298  -4807017  -4714424  -4755256  -4889455  -4722980  -4881785  -4729694  -4813939  -4473182  -4613298  -4865354  -4779537  -4752289  -4733192  -4802074  -4756331  -4761101  -4665636  -4722372  -4785434  -4670314  -4564769  -4542768  -4503843  -4458603  -4512232  -4498967  -4408289  -4446485  -4351835  -4327322  -4406071  -4507909  -4558107  -4382818  -4470760  -4602562  -4528889  -4439281  -4461471  -4461455  -4255884  -4093562  -4102061  -4327083  -4358479  -4254919  -4077909  -3766926  -4121768  -4243446  -4407281  -4400111  -4321165  -4322851  -4321919  -4262430  -4532421  -4565808  -4470347  -4327694  -4584121  -4447149  -4647562  -4556707  -4543430  -4402289  -4348242  -4518223  -4535504  -4567232  -4579876  -4525132  -4533121  -4540554  -4468240  -4334818  -4325521  -4311421  -4396010  -4347570  -4403405  -4419657  -4397165  -4362694  -4333535  -4315413  -4177802  -3789778  -4326083  -4114826  -4155485  -4359421  -4247207  -4285404  -4414868  -4297893  -4355576  -4261562  -4211826  -4441758  -4294579  -4292992  -4213263  -4071702  -4097017  -3899434  -3834851  -3857198  -3322040  -3628901  -4000438  -4047990  -4024603  -4050314  -3985152  -3857727  -4046289  -3758869  -2683545  -3772529  -3931848  -3738595  -3892661  -3945576  -3868380  -3741620  -3968525  -3725140  -3850917  -3644848  -3619364  -3694752  -3605010  -3693769  -3706760  -3598475  -3501074  -3556661  -3888364  -4321132  -4151107  -2780967  -1296843  -661157  -293354  -54314  999000  999000  999000  -2021  -1695  -1950  999000  999000  999000  999000  999000  999000  -83346  -276146  -694625  -1096455  -1451719  -1616157  -1561521  -1340876  -988430  -841099  -842322  -488628  -47583  -1881  999000  999000  999000 
 -5424899  -5332769  -5449694  -5277101  -5412215  -5337826  -5373697  -5428818  -5406107  -5359323  -5252421  -5197959  -5207778  -5144496  -5044190  -5199949  -5199636  -5074537  -4999727  -5114702  -5188983  -5183747  -5184306  -5159033  -5184444  -5112264  -5192231  -5137636  -4957587  -4930380  -4860848  -4909240  -4787628  -4807293  -4728058  -4729388  -4586242  -4740760  -4478579  -4821798  -4900893  -4920504  -4754333  -4821488  -4868446  -4884495  -4872736  -4944529  -4947778  -4922165  -4898215  -4804808  -4922314  -5016231  -5016919  -4753264  -4987314  -4900737  -5060099  -5041512  -4863152  -4906430  -4956719  -4867798  -4812025  -4681620  -4785394  -4786471  -4838289  -4742273  -4809917  -4783058  -4829283  -4744207  -4645083  -4699232  -4704066  -4689835  -4662697  -4625992  -4561388  -4671232  -4707909  -4607124  -4631101  -4544017  -4535835  -4549303  -4644091  -4536000  -4520162  -4487157  -4421579  -4503828  -4277298  -4467835  -4151768  -4078124  -4074364  -4302424  -4209975  -4170091  -4303485  -4124711  -4293157  -4148071  -4074785  -4067388  -4061071  -4533240  -4558992  -4609899  -4132190  -3997909  -4136495  -4725686  -4418488  -4636848  -4680504  -4728198  -4574374  -4584438  -4450636  -4430505  -4289934  -4329413  -4451667  -4410231  -4462223  -4498778  -4669653  -4532942  -4409131  -4543132  -4459942  -4541414  -4422058  -4473793  -4498535  -4579884  -4533116  -4426949  -4395562  -4381174  -4380152  -4493074  -4370851  -4296242  -4283331  -4277124  -4146929  -4396289  -4198430  -4242667  -4228661  -4202876  -4263646  -4354041  -4414975  -4418687  -4319603  -4247868  -4253121  -4286331  -4306967  -4319768  -4231124  -4242636  -4027475  -4112860  -4084124  -4051434  -4019752  -4076669  -4066293  -3901554  -4065207  -4021051  -3983860  -3974215  -4024455  -3625934  -3958620  -3982485  -2944711  -3405760  -3940192  -3837223  -3847471  -3879131  -3809810  -3669504  -3744929  -3929686  -3977256  -3988859  -3702223  -3731620  -3643828  -3606636  -3589339  -3962111  -3787215  -4054264  -4457845  -4391041  -2625521  -981413  -182554  -54647  -30542  -38957  -33517  -20398  -4478  -1250  -2405  999000  999000  999000  999000  999000  999000  999000  -210010  -657579  -1073975  -1352967  -1397860  -1023669  -805628  -781645  -550083  -325074  -307909  -80443  -10123  -2327  999000  999000  999000 
 -5437323  -5425479  -5460860  -5399101  -5515182  -5453595  -5374556  -5396033  -5398066  -5351535  -5285099  -5111372  -5144960  -5182190  -5208041  -5167030  -5023777  -4935810  -5098869  -5071612  -5086736  -5133202  -4439405  -4585992  -5171576  -4962231  -5126190  -5140586  -4913331  -4964851  -4883030  -4889603  -4911975  -4823192  -4788041  -4837975  -4775788  -4790521  -4678388  -4709970  -4674306  -4815612  -4659364  -4793273  -4825248  -4856323  -4925620  -4972190  -4942444  -4954826  -4921785  -4804758  -4872331  -4827504  -5017626  -4998000  -4880860  -4911525  -4827099  -4849240  -4855192  -4826446  -4814802  -4842495  -4729314  -4782157  -4836202  -4768496  -4746934  -4808939  -4774545  -4651455  -4804727  -4698322  -4545496  -4537768  -4501182  -4612521  -4499182  -4585570  -4558810  -4610545  -4579165  -4521678  -4476566  -4540868  -4484678  -4526980  -4578289  -4480851  -4319212  -4397545  -4093760  -3925303  -3861273  -4005702  -4331909  -4313595  -4346603  -4084384  -4122430  -4129223  -4083677  -3999256  -4074926  -3979626  -4147612  -4353165  -4049131  -4385934  -3914620  -3775364  -4360521  -4386306  -4209444  -4567405  -4559438  -4626141  -4605744  -4439686  -4411980  -4480884  -4460612  -4268475  -4354653  -4398868  -4723101  -4312314  -4604636  -4625061  -4595570  -4345025  -4586121  -4547818  -4469298  -4611253  -4444504  -4433463  -4396010  -4628562  -4527810  -4476707  -4371033  -4249760  -4281222  -4278157  -4297405  -4268061  -4307529  -4287529  -4230889  -4226488  -4271702  -4200697  -4274562  -4284256  -4199889  -4241983  -4392719  -4296859  -4248124  -4285686  -4227010  -4313248  -4308653  -4244434  -4303273  -4358785  -4272424  -4182388  -4093347  -4127970  -4228884  -4092661  -3883263  -3987793  -4147545  -4052606  -4071008  -4001760  -3942051  -4062810  -4017190  -4024414  -4039256  -3977769  -4015061  -3945157  -3897430  -3777646  -3720198  -3511694  -3666020  -3513496  -3725488  -3856505  -3947008  -3953058  -3785727  -3656810  -3689777  -4243667  -4039562  -4224372  -4530736  -3332570  -1096264  -150860  -72690  -39635  -67099  -73529  -65397  -48231  -22500  -4568  -1300  999000  999000  999000  999000  999000  999000  -28625  -202702  -745579  -992355  -1011405  -741826  -489702  -542851  -459942  -200852  -131912  -18278  -11857  999000  999000  999000  999000  999000 
 -5390697  -5382058  -5473521  -5398556  -5562893  -5538479  -5314172  -5349719  -5363364  -5332111  -5303942  -5226926  -5048768  -5202215  -5308661  -5242667  -5140620  -5033264  -5153596  -5066116  -5064455  -4963444  -4506058  -4745521  -5042879  -4913099  -4945165  -4962667  -4944397  -5019157  -4955394  -4905950  -4841322  -4869303  -4966959  -4865570  -4912444  -4670959  -4474058  -4592737  -4558876  -4839579  -4599798  -4800140  -4704810  -4716010  -4873727  -4967884  -4885646  -4894917  -4812711  -4869364  -4826752  -4728256  -4789020  -4855554  -4842636  -4820263  -4725140  -4845322  -4803788  -4783504  -4789934  -4938071  -4615545  -4691678  -4704030  -4731471  -4701000  -4719980  -4683331  -4646397  -4714970  -4703306  -4488066  -4402646  -4334058  -4384355  -4486212  -4545876  -4554769  -4546455  -4536041  -4651331  -4651768  -4654455  -4581579  -4516141  -4399835  -4365314  -4561919  -4580628  -4435793  -4290960  -4015190  -4319917  -4376586  -4368785  -4469174  -4371414  -4407372  -4430273  -4308152  -4128628  -3889455  -3846758  -3799793  -4434628  -4323667  -4229298  -4472537  -4467172  -4460934  -4533959  -4518414  -4524008  -4699091  -4669101  -4739950  -4847405  -4614879  -4566694  -4505355  -4426525  -4341140  -4309636  -4001222  -4539289  -4672612  -5026152  -4228066  -4677273  -4587990  -4574264  -4457769  -4530939  -4217025  -4446182  -4368152  -4566810  -4464025  -4551313  -4412769  -4374405  -4295899  -4230860  -4205050  -4140596  -4329860  -4264504  -4195768  -4067603  -4143851  -4307697  -4330074  -4311099  -4312778  -4281678  -4420653  -4210970  -4195025  -4249000  -4358131  -4307314  -4291372  -4239899  -4245537  -4284818  -4295121  -4222545  -4254744  -4152717  -4104992  -4061488  -3547303  -3821240  -4180008  -4109485  -4047066  -3995107  -3908525  -3985645  -4009099  -3973242  -3998215  -3983413  -3984949  -3937959  -3955264  -3958980  -3634760  -3160711  -3600495  -3564430  -3790983  -3761101  -3740777  -3770140  -3840859  -3813380  -3669231  -3976899  -4020364  -4388446  -4356282  -2688231  -716802  -152025  -72358  -67483  -96471  -94628  -80942  -83124  -53347  -19218  -1462  999000  999000  999000  999000  999000  999000  -45444  -199826  -650686  -744388  -708033  -453339  -300521  -203702  -143950  -87410  999000  999000  999000  999000  999000  999000  999000  999000 
 -5442071  -5374116  -5249314  -5377111  -5240983  -5260083  -5389818  -5318926  -5282917  -5193172  -5261967  -5273669  -5178596  -5352752  -5349314  -5296384  -5306826  -5056785  -5058253  -4924554  -4284372  -4702394  -4707818  -4886273  -4800545  -4850752  -4904041  -4937202  -4970157  -4965942  -5046414  -4965901  -4741256  -5048010  -5030289  -4865314  -4835990  -4833777  -4869587  -4662949  -4939521  -4872752  -4881747  -4813975  -4670587  -4713141  -4910826  -4905165  -4889990  -4918595  -4760471  -4882434  -4838050  -4756223  -4879859  -4803612  -4720595  -4855333  -4860174  -4818380  -4787384  -4835835  -4833876  -4916030  -4850893  -4600008  -4839525  -4816579  -4684017  -4629788  -4640967  -4675405  -4685778  -4774901  -4695504  -4555444  -4554273  -4600793  -4431707  -4559140  -4536884  -4577020  -4513760  -4511248  -4509990  -4621562  -4220678  -4351414  -4505099  -4422240  -4661172  -4611678  -4301959  -4155273  -4040628  -4576777  -4329141  -4157752  -4200612  -4117343  -4346719  -4453975  -4517737  -4269777  -3505959  -3328980  -3763413  -4102298  -4169616  -4229678  -4344347  -4320495  -4253760  -4542702  -4482525  -4606182  -4770736  -4738566  -4734066  -4575785  -4479051  -4665471  -4570372  -4575687  -4544339  -4565421  -4411515  -4565612  -4250231  -4116687  -4256851  -4536388  -4545788  -4508777  -4534926  -4528929  -4328157  -4203091  -4345465  -4242149  -4483950  -4488818  -4395074  -4452636  -4332788  -4272777  -4203322  -4145111  -4307281  -4189000  -4247192  -4238488  -4237636  -4315737  -4303851  -4332529  -4345657  -4190372  -4349289  -4252606  -4250537  -4338223  -4322172  -4364860  -4332744  -4316535  -4200942  -4269488  -4304768  -4277959  -4214835  -4193283  -4085702  -3980876  -4059606  -4175603  -4139240  -4173414  -4052174  -4056835  -3964131  -3952231  -3897909  -3952444  -3970058  -3934934  -3893232  -3913273  -3893099  -3929616  -3529992  -4060190  -3837737  -3723314  -3785207  -3633758  -3616967  -3640157  -3702606  -3861455  -3599959  -3781525  -4135554  -4480000  -3967791  -2156306  -376500  -278593  -187598  -95523  -113587  -104298  -112711  -120165  -76777  -38227  999000  999000  999000  999000  999000  999000  999000  -109385  -299380  -721165  -676672  -381612  -168851  -34612  -20867  -19281  999000  999000  999000  999000  999000  999000  999000  999000  999000 
 -5459576  -5395669  -5393942  -5352535  -5366413  -5167140  -5347141  -5340678  -5219347  -5233960  -5125669  -5248686  -5362182  -5405810  -4790256  -4469828  -4892488  -4785694  -5078747  -5043678  -4787893  -4900465  -4747793  -4752669  -4767737  -4866942  -4856587  -4850606  -4944579  -4977669  -4701808  -4706818  -4882545  -5012687  -5094017  -5064413  -4824222  -4692496  -4673868  -4832394  -4964587  -4904876  -4855788  -4851157  -4806017  -4836162  -4986587  -4967793  -5033859  -5040868  -4937413  -4957152  -4863950  -4893802  -4908152  -4707273  -4626256  -4928566  -4822686  -4839017  -4822424  -4777711  -4834636  -4780444  -4809752  -4794876  -4794495  -4839289  -4796050  -4805697  -4804587  -4758777  -4766081  -4738909  -4763463  -4661737  -4670306  -4638537  -4663707  -4634008  -4478587  -4582051  -4548488  -4739719  -4596424  -4547926  -4227661  -4331879  -4015496  -3687686  -4210737  -4112240  -4242901  -4429394  -4272215  -4329620  -4314444  -4249736  -4140298  -4065727  -4242893  -3904793  -3741303  -3477281  -3581140  -3681737  -3782711  -4372917  -4491121  -4317380  -4267570  -4398949  -4162711  -4424174  -4299273  -4627463  -4695314  -4910586  -4795488  -4638884  -4448586  -4572421  -4431512  -4526071  -4644950  -4369860  -4707525  -4762050  -4749446  -4793929  -4604124  -4658347  -4551444  -4471570  -4442471  -4453980  -4257587  -4464380  -4377687  -4386702  -4543174  -4508182  -4494289  -4479876  -4413030  -4211570  -4321744  -4279232  -4339388  -4298769  -4274788  -4185364  -4261041  -4266667  -4249942  -4271364  -4338646  -4304521  -4312099  -4193556  -4369463  -4252868  -4350202  -4349636  -4314835  -4312101  -4182364  -4167752  -4284606  -4256165  -4228190  -4228879  -4057744  -3919421  -4047162  -4024091  -4093215  -4091232  -4046587  -3987909  -3973121  -3979818  -3888463  -3921657  -3912529  -3826835  -3822141  -3944702  -3965413  -3861747  -3741570  -4401529  -3259010  -3656512  -3702579  -3639283  -3592661  -3549248  -3480263  -3629198  -3578107  -3740778  -4239868  -4152157  -3017600  -2067901  -1020959  -339165  -219636  -142099  -140554  -136438  -114430  -98669  -78992  -39778  -12462  999000  999000  999000  999000  999000  -168050  -314562  -383025  -616909  -243793  -145992  -30174  -10218  -2946  999000  999000  999000  999000  999000  999000  999000  999000  999000  999000 
 -5438848  -5458033  -5434942  -5263576  -5351727  -5355479  -5245657  -5272215  -5202678  -5332737  -5211653  -5214446  -5268364  -5198033  -5102017  -5309657  -5194529  -5139347  -5082293  -5063628  -5007967  -4953020  -4864289  -4861058  -4733606  -4834388  -4833190  -4861970  -4922058  -4839760  -4627848  -4558496  -5067058  -5039091  -5166182  -5030157  -4961929  -4960826  -4971884  -4919788  -4985132  -4964983  -4878879  -4858050  -4931190  -4908576  -4912504  -5081959  -5096606  -5059066  -5058777  -5000646  -4999107  -4860744  -4844232  -4896041  -4893909  -4865566  -4799058  -4807777  -4848869  -4865669  -4804496  -4783566  -4826512  -4771512  -4784586  -4827496  -4785595  -4952051  -4818339  -4714364  -4692838  -4640033  -4549529  -4596646  -4589000  -4578537  -4587384  -4595017  -4407760  -4486303  -4519777  -4644570  -4383788  -4632512  -4439686  -4236212  -4014802  -4101397  -4462354  -3614017  -3645190  -4435747  -4028198  -4161116  -4404313  -4449298  -4384008  -4582535  -4473785  -4247934  -4188051  -4345694  -4639628  -4759697  -4426314  -4165041  -4063535  -4336207  -4146636  -4429293  -4374835  -4485612  -4278576  -4692818  -4494967  -4617010  -4702818  -4584884  -4527889  -4561388  -4669719  -4688899  -4625455  -4381380  -4557838  -4657264  -4567331  -4650606  -4572719  -4852975  -4624939  -4553975  -4458926  -4257970  -4386397  -4417017  -4400960  -4431355  -4540512  -4323485  -4234760  -4428785  -4532980  -4160050  -4174579  -4446404  -4475256  -4436835  -4444899  -4286479  -4302711  -4321737  -4319744  -4289248  -4301152  -4265719  -4306570  -4292535  -4254405  -4266430  -4305657  -4237702  -4215818  -4219222  -4204884  -4180430  -4167505  -4205107  -4301959  -4273253  -4229785  -3935504  -4014333  -4062694  -4037438  -4033596  -3834595  -3892215  -3836788  -3845901  -3871000  -3929889  -3829273  -3780769  -3786535  -3870157  -3964744  -3844859  -3322083  -3588727  -3379101  -3629694  -3656702  -3558141  -3564471  -3580421  -3446919  -3424636  -3505455  -3753131  -3995149  -2882430  -1715736  -1499876  -728537  -461504  -341248  -179868  -125793  -124364  -99843  -91595  -65434  -33724  999000  999000  999000  999000  999000  -212558  -630767  -351713  -365491  -320944  -167992  -75116  -19578  -4964  999000  999000  999000  999000  999000  999000  999000  999000  999000  999000  999000 
 -5370697  -5435207  -5397975  -5357020  -5415636  -5429628  -5305020  -5335066  -5266917  -5332980  -5304298  -5219058  -5224202  -5218231  -5180901  -5097273  -5153372  -5148289  -5057172  -5015455  -4980744  -4946081  -4869529  -4909694  -4871556  -4863107  -4683025  -4806808  -4908074  -4902537  -4792172  -4626769  -4726091  -4472475  -4297835  -4745289  -4766929  -4898975  -4984488  -5014535  -4945570  -4919306  -5044687  -4903620  -4934983  -4867020  -4882934  -5025884  -5066687  -5100388  -5041992  -5040384  -5046661  -4916744  -4893990  -4950140  -4884570  -4893212  -4829256  -4816942  -4794141  -4760091  -4766413  -4715616  -4831529  -4846744  -4875162  -4775983  -4815405  -4766727  -4753917  -4705446  -4788424  -4904281  -4746446  -4690253  -4660686  -4568826  -4524293  -4499306  -4478587  -4464990  -4517091  -4638785  -4374566  -3238504  -3588909  -3951374  -4493587  -4455628  -4199091  -3685653  -4089835  -4369717  -4465496  -4247669  -4271960  -4527628  -4472397  -4648384  -4403926  -4359099  -4429768  -4319041  -4384041  -4257475  -4390339  -4488653  -4156515  -4267669  -4282397  -4390535  -4449231  -4548405  -4285535  -4492207  -4465198  -4575333  -4715719  -4648256  -4613909  -4551017  -4588653  -4396646  -4509347  -4603091  -4520929  -4688140  -4615628  -4675525  -4791074  -5088983  -4867697  -4650727  -4635777  -4550364  -4352421  -4327132  -4228606  -4371612  -4477050  -4474040  -4651157  -4565116  -4497313  -4481322  -4374165  -4418596  -4449537  -4413851  -4395202  -4365347  -4337603  -4335293  -4372322  -4308463  -4339576  -4275264  -4291909  -4340768  -4332157  -4286190  -4284667  -4224174  -4235388  -4196394  -4186554  -4109959  -4161758  -4149570  -4230471  -4318495  -4154372  -4065388  -4130475  -4098785  -4008421  -3932566  -3702413  -3899702  -3801374  -3859719  -3773364  -3792717  -3741041  -3727727  -3737646  -3738463  -3681364  -3521737  -1880333  -2482686  -3456444  -3610711  -3635041  -3556788  -3518364  -3551488  -3497939  -3407967  -3591355  -3863636  -2766719  -1598240  -1078273  -1384025  -1302223  -971273  -591488  -175579  -105298  -93678  -86322  -66708  -36810  999000  999000  999000  999000  999000  -129354  -732429  -399765  -430777  -389860  -246892  -94739  -13939  -8000  -4368  999000  999000  999000  999000  999000  999000  999000  999000  999000  999000  999000 
 -5465343  -5494673  -5381991  -5429600  -5447564  -5381482  -5348433  -5363518  -5323845  -5264078  -5215555  -5223509  -5201167  -5176264  -5157955  -5123400  -5138755  -5144509  -5117122  -5072936  -5032245  -5036967  -4971727  -4970400  -4972944  -4885227  -4872482  -4883356  -4758118  -4798973  -4826789  -4835055  -4894818  -5057144  -5088336  -4961064  -4836900  -4870182  -4895927  -5043022  -4972955  -4953636  -4854911  -4920800  -4934900  -4871311  -4892445  -5038045  -5018478  -5055791  -5038364  -5038956  -5006809  -4990164  -4849644  -4989618  -4941836  -4868589  -4927564  -4827064  -4830522  -4720436  -4742164  -4714989  -4830127  -4930291  -4913444  -4755509  -4757300  -4582311  -4729664  -4599982  -4625233  -4616918  -4568018  -4656256  -4617927  -4585845  -4609878  -4713900  -4662309  -4300533  -4201582  -4411864  -4199200  -3809245  -4513918  -4538289  -4480600  -4395755  -4466567  -3864273  -3989909  -4473078  -4557673  -4414900  -4415533  -4263464  -4423709  -4447433  -4460173  -4374491  -4327889  -4106600  -4174209  -4331344  -4258736  -4380509  -4381178  -4319127  -4241300  -4188033  -4318936  -4461618  -4417711  -4603282  -4481518  -4566656  -4694264  -4640936  -4648133  -4377618  -4580591  -4265833  -4459918  -4625109  -4739844  -4672400  -4444345  -4647433  -4649364  -4638218  -4611900  -4770800  -4916855  -4269767  -4319827  -4426573  -4301167  -4187218  -4202655  -4227600  -4189245  -4524500  -4546478  -4456082  -4416182  -4375400  -4381936  -4270509  -4461778  -4298427  -4284218  -4360233  -4367545  -4358218  -4366456  -4352345  -4351573  -4417689  -4301064  -4302200  -4371656  -4328173  -4280245  -4208511  -4225000  -4165509  -4162478  -4215082  -4255055  -4302022  -4254900  -4237091  -4175289  -4105627  -3992491  -3894156  -3800418  -3906445  -3781856  -3876382  -4027382  -3974400  -3732991  -3601791  -3589167  -3601055  -3537409  -3067733  -1375563  -2074955  -3326622  -3544900  -3602664  -3550067  -3536209  -3588400  -3736611  -3675109  -3833264  -3174400  -1820945  -957955  -1383120  -1600336  -1620827  -1190755  -488809  -129309  -97436  -91591  -66427  -25143  999000  999000  999000  999000  999000  -85153  -594423  -552470  -248349  -414973  -394855  -121058  999000  -1814  999000  999000  999000  999000  999000  999000  999000  999000  999000  999000  999000  999000  999000 
 -5406707  -5465719  -5456653  -5447212  -5411587  -5319289  -5334626  -5363818  -5318942  -5088515  -5188926  -5278256  -5295687  -5203835  -5207256  -5152970  -5093496  -5118140  -5167758  -4946182  -4935264  -5064010  -5117174  -5178802  -5031293  -5018702  -4949041  -4873485  -4901579  -4928190  -4886879  -4883314  -4962983  -4977970  -5020314  -5046785  -4797606  -4891835  -5007843  -5060475  -4344760  -4346512  -5050333  -5003289  -4970653  -4998626  -5021851  -5075777  -5025111  -5035818  -4984603  -4970040  -4995843  -4969843  -4988556  -5017198  -4857083  -4897899  -4952545  -4849132  -4853000  -4806380  -4846868  -4817192  -4769793  -4750380  -4742535  -4590719  -4639545  -4732636  -4647190  -4491719  -4638889  -4631240  -4659438  -4691424  -4601256  -4570818  -4473596  -4668289  -4690504  -4733091  -4447636  -4145463  -4070495  -4206793  -4311760  -4339616  -4141554  -3885760  -4328990  -4252851  -4229529  -4538152  -4613223  -4444793  -4302222  -4269719  -4606430  -4554606  -4426983  -4365785  -4261556  -4262074  -4262521  -4291960  -4199628  -4296413  -4445646  -4323893  -4311686  -4386576  -4473455  -4420876  -4689051  -4668901  -4597190  -4831040  -4762959  -4565107  -4456859  -4532545  -4563099  -4588424  -4530116  -4218372  -4364313  -4733777  -4791521  -4747172  -4763388  -4631645  -4654747  -4586298  -4524570  -4181525  -4393521  -4433140  -4386081  -4285612  -4210653  -4143465  -4197215  -4295463  -4498980  -4318901  -4133074  -4393121  -4422421  -4272934  -4238000  -4360140  -4219149  -4394657  -4458124  -4463116  -4362212  -4331017  -4326736  -4348414  -4376107  -4386397  -4318687  -4294835  -4164298  -4164848  -4198736  -4233107  -4226141  -4240033  -4289322  -4196152  -4274893  -4244727  -4137040  -4057364  -3974182  -3910859  -3971826  -3885124  -3670586  -3760901  -3730612  -3644869  -3653785  -3513388  -3306091  -3375793  -3225331  -2534909  -644870  -2281712  -3497586  -3601975  -3620537  -3677667  -3562810  -3559050  -3628889  -3736868  -3930769  -2764000  -1404694  -1154752  -1760873  -1768678  -1536504  -762587  -158504  -95603  -88116  -66765  -32400  999000  999000  999000  999000  999000  -103269  -406167  -448235  -166339  -369702  -373504  -252347  -123241  -1842  -2316  999000  999000  999000  999000  999000  999000  999000  999000  999000  999000  999000  999000  999000 
 -5323515  -5305496  -5379488  -5374697  -5436264  -5332298  -5302485  -5171645  -5206645  -5167333  -5116562  -5141785  -5246101  -5160529  -5074298  -5095111  -5009686  -4979488  -5077263  -4923942  -4805248  -4617394  -4319587  -3839124  -4371626  -4472959  -4684893  -4881323  -4852107  -4829967  -4914606  -4966562  -4940331  -4879414  -4922289  -5029645  -4873697  -4556099  -5028496  -5053657  -5079760  -5015818  -5078111  -5055975  -5043438  -5058556  -5106190  -5077736  -5011444  -5016314  -5015727  -4994374  -4963388  -4951240  -5040414  -5010967  -4988331  -4920576  -5006909  -4865653  -4954889  -4828339  -4726810  -4796414  -4653612  -4732405  -4632152  -4681066  -4758926  -4695677  -4671479  -4588950  -4585838  -4877107  -4885149  -4948909  -4822107  -4736802  -4244495  -4337843  -4605868  -4675646  -4622661  -4538116  -4630242  -4700455  -4265901  -3791838  -3977149  -4277702  -4429131  -4431818  -4414992  -4436091  -4561339  -4629983  -4292697  -4540190  -4418835  -4459646  -4344322  -4427537  -4380778  -4217322  -4340992  -4317818  -4306818  -4297372  -4431000  -4529959  -4357182  -4423636  -4579033  -4501116  -4425475  -4653033  -4709033  -4636545  -4703289  -4631636  -4595081  -4764083  -4775529  -4522990  -4455926  -4715298  -4470444  -4669851  -4796950  -4580697  -4679579  -4614835  -4374586  -4529149  -4444298  -4018000  -4328669  -4337612  -4311495  -4252661  -4188752  -4048636  -4253058  -4372157  -4434646  -4458521  -4406694  -4423152  -4362380  -4287554  -4327990  -4399959  -4362868  -4366364  -4292405  -4444421  -4422737  -4310140  -4299372  -4332919  -4349091  -4329140  -4272778  -4296851  -4251570  -4185677  -4179240  -4219975  -4187747  -4136810  -4106843  -4072919  -4078083  -4216512  -4158091  -4026769  -3907099  -3910515  -3997091  -3797174  -3790566  -3775810  -3761868  -3635869  -3578876  -3478628  -3459657  -3479950  -3257678  -2872152  -2558818  -3158504  -3539434  -3697347  -3902405  -3913424  -3609926  -3471041  -3253303  -3384025  -3325983  -2012283  -1344107  -1640777  -1712336  -1807298  -1004017  -202430  -76298  -60305  -44697  -23133  999000  999000  999000  999000  999000  999000  -372458  -310543  -60000  -291942  -372471  -220562  -141992  -64176  -4076  999000  999000  999000  999000  999000  999000  999000  999000  999000  999000  999000  999000  999000  999000 
 -5262141  -5297818  -5316291  -5066767  -5316755  -5318218  -5264200  -5124564  -4907809  -5132711  -5149136  -5174318  -5073567  -4453164  -4522682  -5073833  -4454191  -4049809  -4996878  -5021464  -5020391  -4743278  -4915836  -4694936  -4836778  -4803818  -4833927  -4914178  -4955218  -4980064  -4961244  -5001364  -4991491  -4974233  -4969027  -5005809  -5021244  -5030991  -5082264  -5105000  -5085800  -5071855  -4991933  -5130209  -5073827  -5050878  -5059155  -5154245  -5106500  -5092609  -5020836  -4983478  -4968564  -4952418  -5017322  -5014355  -4963564  -4878722  -4938491  -4870373  -4866522  -4681900  -4810318  -4722278  -4686382  -4761273  -4700478  -4718600  -4748827  -4687489  -4700327  -4682200  -4785078  -4724391  -4436655  -3685489  -3420891  -3476373  -3586344  -3821155  -3872300  -3728944  -3879527  -4143382  -4460189  -4412736  -3823845  -4297533  -4833127  -4475136  -4550789  -4632827  -4445091  -4387300  -4480855  -4607782  -4421456  -4684700  -4658900  -4523900  -4509627  -4493073  -4386622  -4353509  -4363655  -4425344  -4315573  -4386082  -4482089  -4372700  -4235882  -4408433  -4595727  -4609791  -4558111  -4527145  -4635145  -4697900  -4724127  -4687627  -4847533  -4577682  -4668118  -4618533  -4588973  -4670436  -4771389  -4676782  -4409655  -4422356  -4276927  -4693145  -4686444  -4632036  -4452045  -4485856  -4409818  -4378527  -4449011  -4364109  -4284591  -4294100  -4307564  -4404700  -4384844  -4488355  -4399973  -4305856  -4277327  -4366855  -4331256  -4330891  -4313227  -4370189  -4362918  -4378955  -4399467  -4324055  -4194336  -4249800  -4232009  -4313882  -4282956  -4266636  -4287409  -4259889  -4188809  -4122764  -4120944  -4050500  -3998464  -3969044  -3977855  -4042800  -4151456  -4044291  -3928673  -3928078  -3939727  -3922136  -3727578  -3764400  -3733918  -3624889  -3510173  -3373691  -3271122  -3381191  -3205973  -3233344  -3380527  -3415718  -3522844  -3344127  -3177791  -3006689  -2094609  -2299782  -2618311  -2275764  -1214282  -919033  -1631918  -2183255  -2021930  -1412264  -379764  -72273  -40648  -16048  999000  999000  999000  999000  999000  999000  999000  -253642  -317762  -49185  -152069  -342473  -318255  -180000  -94409  -52654  -9429  999000  999000  999000  999000  999000  999000  999000  999000  999000  999000  999000  999000  999000  999000 
 -5159202  -5108074  -5137207  -5080808  -5192471  -5185215  -5169596  -4793107  -3292934  -4891657  -5070835  -5021331  -5082444  -4163322  -4176231  -4787727  -4790868  -4736653  -4691677  -4579207  -5044116  -5082889  -5050950  -5018281  -4934889  -4930306  -4998306  -4986000  -5101769  -5055413  -5008131  -5028926  -5026579  -5067848  -5064612  -5034694  -5014495  -5044653  -5050934  -5048606  -5077347  -5026322  -5031384  -5081355  -5105355  -4920505  -4937777  -4983694  -5023152  -4970620  -4993438  -5041384  -5049364  -4987264  -5000222  -4965446  -4957438  -4924939  -4879727  -4871868  -4789051  -4818215  -4826785  -4831879  -4787446  -4808636  -4882343  -4761388  -4764760  -4688535  -4577074  -4582983  -4562545  -4425661  -4243868  -4608899  -4678901  -4470124  -4602737  -4344397  -4646066  -4597707  -4709727  -4511562  -4405545  -4632223  -4508595  -4402162  -4809033  -4607331  -4189081  -4006066  -3902926  -4087717  -4027810  -4284190  -4271020  -4267669  -4098041  -4385091  -4606207  -4485702  -4382545  -4374140  -4473909  -4405182  -4394942  -4416512  -4520949  -4616405  -4471281  -4390808  -4421198  -4277496  -4439232  -4492174  -4659281  -4710374  -4692174  -4744000  -4614727  -4578149  -4668256  -4630859  -4603339  -4670000  -4697455  -4417942  -4282149  -4418848  -4479785  -4466041  -4179535  -4633512  -4636884  -4514424  -4591207  -4537025  -4469455  -4398463  -4408388  -4212980  -4345826  -4432678  -4311374  -4276678  -4349942  -4372525  -4372281  -4348992  -4353798  -4200860  -4217785  -4283616  -4387570  -4408025  -4407263  -4336306  -4216364  -4232566  -4116025  -4120736  -4199343  -4201628  -4297694  -4296333  -4178884  -4158273  -4117778  -4130347  -4022587  -3938455  -3993512  -3861000  -3956263  -3970744  -3959802  -3937566  -3654000  -3813760  -3778263  -3559380  -3164529  -3344778  -3254058  -3498860  -3326889  -3366917  -3362802  -3520475  -3447000  -3487132  -3508313  -3468421  -3254851  -3144313  -2605157  -2536909  -2251101  -1275223  -1225091  -1448515  -2338661  -2335785  -1374036  -482917  -40149  -10057  999000  999000  999000  999000  999000  999000  999000  -59909  -329787  -620421  -313124  -227545  -295116  -264471  -202421  -115736  -77248  -38794  999000  999000  999000  999000  999000  999000  999000  999000  999000  999000  999000  999000  999000  999000  999000 
 -5480778  -5175595  -5364620  -5188061  -5159405  -4866107  -4824636  -4681843  -4567967  -4653576  -4647124  -4755421  -4977192  -5072942  -4948636  -4876172  -4879132  -4760653  -4684010  -4769893  -4954603  -4962808  -4916017  -4922306  -4978404  -5022702  -4932091  -4852444  -5152851  -5170050  -5265677  -5139810  -5082455  -5101717  -5087562  -5097967  -5125323  -5093901  -5167545  -5073687  -5092165  -5047802  -5007828  -4958835  -4948174  -4954859  -4975512  -4945289  -4923626  -4926760  -4975157  -4920980  -4948579  -4890917  -4960616  -4963736  -4702140  -4791869  -4917174  -5093959  -4849071  -4881760  -4652421  -4757455  -4825843  -4548289  -4542657  -4515711  -4657826  -4642889  -4716975  -4690132  -4685727  -4707868  -4691653  -4702384  -4585967  -4464380  -4583071  -4540438  -4600298  -4543273  -4727628  -4642099  -4514525  -4564479  -4510140  -4581030  -3734909  -4168744  -4409707  -4575264  -4691264  -5078000  -4917223  -4607074  -4176515  -4184182  -4524074  -4583152  -4689628  -4533355  -4306414  -4415983  -4387678  -4533343  -4393314  -4421686  -4419899  -4530529  -4541934  -4651778  -4751281  -4367545  -4158556  -4470702  -4653876  -4650020  -4612430  -4645727  -4564030  -4704727  -4477455  -4663263  -4713405  -4773174  -4600010  -4513570  -4534975  -4334455  -4402769  -4510669  -4584949  -4560116  -4333306  -4360960  -4452397  -4353041  -4489556  -4392413  -4290496  -4252495  -4369165  -4435388  -4353949  -4422570  -4320306  -4270465  -4408843  -4393140  -4410404  -4350264  -4330818  -4201667  -4316066  -4473992  -4406465  -4389405  -4130694  -4210616  -4191372  -4211876  -4185758  -4242835  -4288182  -4260323  -4191645  -4125496  -4133434  -4168818  -4128496  -3995061  -3912207  -3876983  -3931051  -3908058  -4064397  -4018737  -3831231  -3549843  -3876657  -3557661  -3225140  -3428859  -3385711  -3388248  -3528879  -3394727  -3398793  -3633212  -3528025  -3462413  -3528444  -3311066  -2851008  -2782162  -2593818  -2528843  -2057636  -1605579  -2101008  -2441838  -2485314  -1858182  -822155  -178901  -9950  999000  999000  999000  999000  999000  999000  999000  -38115  -140754  -465570  -629835  -379149  -232595  -191826  -174198  -117149  -97883  -47743  999000  999000  999000  999000  999000  999000  999000  999000  999000  999000  999000  999000  999000  999000  999000  999000 
 -5933394  -5686291  -5427327  -5330700  -5429964  -5437055  -5243056  -5226882  -5071618  -4547911  -4737782  -4772182  -4828789  -4897073  -4793736  -4905600  -4872064  -4838627  -4928067  -4944555  -5022473  -5073444  -4940382  -4973973  -5041411  -5100145  -5148609  -5231378  -5073955  -5074936  -5057589  -5201109  -5088155  -5047367  -5108482  -5170782  -5133833  -5163582  -5142364  -5076156  -5076282  -5067245  -5022356  -4934945  -4933945  -4974633  -4948227  -4936909  -4921133  -4942173  -4927773  -4895133  -4793682  -4790464  -4877144  -4956427  -4792127  -4656744  -4861264  -4617618  -4472089  -4658273  -4766518  -4826889  -4861345  -4768964  -4516556  -4423327  -4651182  -4718189  -4733636  -4728945  -4674411  -4446955  -4519182  -4688389  -4676200  -4611691  -4186156  -4242582  -4608709  -4575789  -4412582  -4419218  -4494833  -4642500  -4574127  -4573211  -4465309  -4452500  -4774589  -4784436  -4768855  -4741667  -4689964  -4641464  -4711767  -4710364  -4765745  -4633467  -4715964  -4551618  -4668778  -4639518  -4579300  -4627500  -4519591  -4451800  -4375111  -4612882  -4696427  -4721678  -4422845  -4371891  -4448111  -4500418  -4505127  -4597689  -4662618  -4423955  -4504333  -4617336  -4653100  -4585133  -4428882  -4446045  -4412856  -4376109  -4305164  -4365200  -4416373  -4667509  -4562122  -4481573  -4367782  -4380056  -4445636  -4332455  -4269900  -4351718  -4259727  -4222411  -4278582  -4225464  -3866744  -4387945  -4339982  -4398422  -4325473  -4043364  -4335322  -4290373  -4272364  -4222044  -4350936  -4222873  -3811900  -4224491  -4410064  -4315833  -4277209  -4209382  -4098922  -4253864  -4207427  -4157956  -4197709  -4129273  -4103311  -4073991  -4143564  -4019767  -3977155  -3923864  -3635311  -3724527  -3896591  -3985389  -3613064  -3929936  -4004900  -3783136  -3587173  -3627511  -3662864  -3541645  -3594967  -3467845  -3371882  -3681922  -3469455  -3409673  -3375722  -3078100  -2879864  -2153433  -2358091  -2152491  -1906200  -2415391  -2636873  -2705656  -2282800  -1166218  -535550  -60774  999000  999000  999000  999000  999000  999000  999000  -23667  -90667  -264936  -441918  -405600  -273400  -175164  -153982  -131100  -97591  -76981  999000  999000  999000  999000  999000  999000  999000  999000  999000  999000  999000  999000  999000  999000  999000  999000  999000 
 -5587323  -5520760  -5552008  -5626828  -5578628  -5486008  -5425414  -5451860  -5611058  -5252869  -4867405  -5084843  -5264212  -5080322  -4815281  -4743253  -4787496  -4840595  -4827687  -4921033  -4982942  -5032636  -5078802  -5071653  -4999939  -5042140  -5016479  -5213162  -5139364  -5228777  -5286869  -5220669  -5126694  -5108596  -5076149  -4810529  -4800434  -5107017  -5083041  -5083000  -5064339  -5043587  -4944101  -4991711  -4992107  -4969545  -5026612  -4933050  -4884556  -4874050  -4864694  -4939172  -4834876  -4918455  -4907778  -4882595  -4865802  -4883192  -4720033  -4749950  -4822980  -4689785  -4581298  -4184394  -4606388  -4741388  -4592606  -4734050  -4476711  -4667828  -4464554  -4382934  -3284919  -4414893  -4724595  -4816646  -4716810  -4649570  -4351515  -4273876  -4436306  -4725990  -4720595  -4670380  -4618788  -4582207  -4613339  -4640919  -4643000  -4596455  -4882333  -4762405  -4721314  -4730788  -4592017  -4533727  -4491899  -4474645  -4578488  -4571899  -4478612  -4452298  -4468384  -4616843  -4626397  -4767394  -4795380  -4733719  -4592677  -4666017  -4551331  -4459242  -4647884  -4592967  -4588768  -4460818  -4473223  -4625889  -4577347  -4423727  -4439808  -4229504  -4518066  -4600990  -4624595  -4582488  -4618364  -4533636  -4709479  -4508909  -4461727  -4319339  -4092667  -4398719  -4358678  -4337808  -4364959  -4230248  -4340980  -4063752  -4215967  -4223899  -4366471  -4363182  -4280939  -4216471  -4215868  -4230737  -4265702  -3988140  -4321535  -4366231  -4302909  -3711606  -3954223  -4339711  -4156333  -4338083  -4338463  -4223051  -4266554  -4244182  -4191566  -3892603  -3880884  -4237101  -4265959  -4226207  -4202323  -4093496  -4148793  -4034889  -3933884  -3937752  -4048717  -4048405  -4083736  -3810677  -3289017  -2898926  -2827131  -3689058  -3646851  -3818616  -3668719  -3643661  -3631141  -3559612  -3551686  -3428030  -3122091  -2983537  -2988313  -3025843  -2125570  -1979949  -2214058  -2044107  -2618879  -2441231  -2623785  -1638263  -1862802  -1318868  -155927  -40541  999000  999000  999000  999000  999000  999000  -24231  -46868  -153992  -316579  -362215  -320471  -191364  -152083  -141678  -115033  -90496  -54592  999000  999000  999000  999000  999000  999000  999000  999000  999000  999000  999000  999000  999000  999000  999000  999000  999000 
 -5441313  -5487000  -5465934  -5680788  -5657198  -5596636  -5673939  -5597752  -5489876  -5411475  -5191628  -5424727  -5368758  -5458967  -5485430  -5324283  -5120182  -4952752  -4826343  -4745810  -4679372  -4730010  -4855223  -4961314  -4959808  -5110934  -5046041  -5152677  -5195471  -5235537  -5239141  -5229802  -5128198  -5002798  -5032628  -5071711  -5152939  -5021645  -5071471  -5039505  -5058512  -5025157  -4976778  -5039521  -5068025  -4973828  -5033603  -5018942  -4651343  -4665421  -4797504  -4883515  -4873471  -4952083  -4894646  -4862058  -4828405  -4788586  -4706223  -4732950  -4668909  -4672537  -4750149  -4653111  -4723926  -4722223  -4588657  -4544917  -4465298  -4652596  -4728091  -4563554  -3871758  -4106438  -3573174  -3995061  -3637306  -3843289  -4559414  -4618281  -4810298  -5007808  -5157132  -4949950  -4646798  -4598182  -4660347  -4570939  -4643926  -4733620  -4884131  -4819298  -4675132  -4726242  -4601463  -4600769  -4524566  -4460331  -4393992  -4412434  -4440091  -4532463  -4491566  -4510446  -4564091  -4809323  -4997942  -4878058  -4688263  -4647512  -4534810  -4499949  -4576198  -4565529  -4503162  -4420752  -4342438  -4540030  -4420603  -4508438  -4794707  -4549033  -4592231  -4439071  -4557314  -4456876  -4522121  -4487140  -4494281  -4511788  -4507769  -4550612  -4398525  -4312091  -4241157  -4293242  -4349397  -4241207  -4355424  -4261397  -4385868  -4451788  -4303570  -4247843  -3937131  -4037636  -4023215  -3800758  -4122413  -4204950  -4283293  -4311727  -4353264  -4236040  -4281190  -4268562  -4288525  -4306694  -4350430  -4200192  -4173909  -4251760  -4082384  -3901240  -3729777  -4121394  -4218686  -4179322  -4208091  -4023347  -3969587  -4008293  -3950066  -3819769  -3928980  -3929975  -3917380  -3960515  -3995769  -3758860  -2791778  -3652843  -3187545  -3730657  -3726876  -3711223  -3547697  -3620818  -3391496  -3222273  -3141851  -2693537  -2615303  -2472380  -1907000  -2861081  -2409314  -2603661  -2839515  -2584281  -2182413  -1710838  -1590215  -745736  -54077  -22321  999000  999000  999000  999000  999000  999000  -25818  -37380  -90802  -220322  -272818  -246496  -143289  -139273  -129479  -94843  -63545  -29714  999000  999000  999000  999000  999000  999000  999000  999000  999000  999000  999000  999000  999000  999000  999000  999000  999000 
[...]
 3  3  3  3  3  3  3  3  3  3  3  3  3  3  3  3  3  3  3  3  3  3  3  3  3  3  3  3  3  3  3  3  3  3  3  3  3  3  3  3  3  3  3  3  3  3  3  3  3  3  3  3  3  3  3  3  3  3  3  3  3  3  3  3  3  3  3  3  3  3  3  3  3  3  3  3  3  3  3  3  3  3  3  3  3  3  3  3  3  2  1  1  1  1  1  1  1  1  1  1  1  1  1  1  1  1  1  1  1  1  1  1  1  1  1  1  1  1  1  1  1  1  1  1  1  1  1  1  1  1  1  1  1  1  1  1  1  1  1  1  1  1  1  1  1  1  1  1  1  1  1  1  1  1  1  1  1  0  0  0  0  0  0  0  0  0  0  0  0  0  0  0  0  0  0  0  0  0  0  0  0  0  0  3  3  3  3  3  3  3  3  3  3  3  3  3  3  3  3  3  3  3  3  3  3  3  3  3  3  3  3  3  3  3  3  3  3  3  3  3  3  3  3  3  3  3  3  3  3  3  3  3  3  3  3  3  3  3  3  3  3 
 3  3  3  3  3  3  3  3  3  3  3  3  3  3  3  3  3  3  3  3  3  3  3  3  3  3  3  3  3  3  3  3  3  3  3  3  3  3  3  3  3  3  3  3  3  3  3  3  3  3  3  3  3  3  3  3  3  3  3  3  3  3  3  3  3  3  3  3  3  3  3  3  3  3  3  3  3  3  3  3  3  3  3  3  3  3  3  3  3  2  1  1  1  1  1  1  1  1  1  1  1  1  1  1  1  1  1  1  1  1  1  1  1  1  1  1  1  1  1  1  1  1  1  1  1  1  1  1  1  1  1  1  1  1  1  1  1  1  1  1  1  1  1  1  1  1  1  1  1  1  1  1  1  1  1  1  1  0  0  0  0  0  0  0  0  0  0  0  0  0  0  0  0  0  0  0  0  0  0  0  0  0  3  3  3  3  3  3  3  3  3  3  3  3  3  3  3  3  3  3  3  3  3  3  3  3  3  3  3  3  3  3  3  3  3  3  3  3  3  3  3  3  3  3  3  3  3  3  3  3  3  3  3  3  3  3  3  3  3  3  3 
 3  3  3  3  3  3  3  3  3  3  3  3  3  3  3  3  3  3  3  3  3  3  3  3  3  3  3  3  3  3  3  3  3  3  3  3  3  3  3  3  3  3  3  3  3  3  3  3  3  3  3  3  3  3  3  3  3  3  3  3  3  3  3  3  3  3  3  3  3  3  3  3  3  3  3  3  3  3  3  3  3  3  3  3  3  3  3  3  3  2  1  1  1  1  1  1  1  1  1  1  1  1  1  1  1  1  1  1  1  1  1  1  1  1  1  1  1  1  1  1  1  1  1  1  1  1  1  1  1  1  1  1  1  1  1  1  1  1  1  1  1  1  1  1  1  1  1  1  1  1  1  1  1  1  1  1  1  0  0  0  0  0  0  0  0  0  0  0  0  0  0  0  0  0  0  0  0  0  0  0  0  0  3  3  3  3  3  3  3  3  3  3  3  3  3  3  3  3  3  3  3  3  3  3  3  3  3  3  3  3  3  3  3  3  3  3  3  3  3  3  3  3  3  3  3  3  3  3  3  3  3  3  3  3  3  3  3  3  3  3  3 
 3  3  3  3  3  3  3  3  3  3  3  3  3  3  3  3  3  3  3  3  3  3  3  3  3  3  3  3  3  3  3  3  3  3  3  3  3  3  3  3  3  3  3  3  3  3  3  3  3  3  3  3  3  3  3  3  3  3  3  3  3  3  3  3  3  3  3  3  3  3  3  3  3  3  3  3  3  3  3  3  3  3  3  3  3  3  3  3  3  2  1  1  1  1  1  1  1  1  1  1  1  1  1  1  1  1  1  1  1  1  1  1  1  1  1  1  1  1  1  1  1  1  1  1  1  1  1  1  1  1  1  1  1  1  1  1  1  1  1  1  1  1  1  1  1  1  1  1  1  1  1  1  1  1  1  1  1  0  0  0  0  0  0  0  0  0  0  0  0  0  0  0  0  0  0  0  0  0  0  0  0  3  3  3  3  3  3  3  3  3  3  3  3  3  3  3  3  3  3  3  3  3  3  3  3  3  3  3  3  3  3  3  3  3  3  3  3  3  3  3  3  3  3  3  3  3  3  3  3  3  3  3  3  3  3  3  3  3  3  3  3 
 3  3  3  3  3  3  3  3  3  3  3  3  3  3  3  3  3  3  3  3  3  3  3  3  3  3  3  3  3  3  3  3  3  3  3  3  3  3  3  3  3  3  3  3  3  3  3  3  3  3  3  3  3  3  3  3  3  3  3  3  3  3  3  3  3  3  3  3  3  3  3  3  3  3  3  3  3  3  3  3  3  3  3  3  3  3  3  3  3  2  1  1  1  1  1  1  1  1  1  1  1  1  1  1  1  1  1  1  1  1  1  1  1  1  1  1  1  1  1  1  1  1  1  1  1  1  1  1  1  1  1  1  1  1  1  1  1  1  1  1  1  1  1  1  1  1  1  1  1  1  1  1  1  1  1  1  0  0  0  0  0  0  0  0  0  0  0  0  0  0  0  0  0  0  0  0  0  0  0  0  0  3  3  3  3  3  3  3  3  3  3  3  3  3  3  3  3  3  3  3  3  3  3  3  3  3  3  3  3  3  3  3  3  3  3  3  3  3  3  3  3  3  3  3  3  3  3  3  3  3  3  3  3  3  3  3  3  3  3  3  3 
 3  3  3  3  3  3  3  3  3  3  3  3  3  3  3  3  3  3  3  3  3  3  3  3  3  3  3  3  3  3  3  3  3  3  3  3  3  3  3  3  3  3  3  3  3  3  3  3  3  3  3  3  3  3  3  3  3  3  3  3  3  3  3  3  3  3  3  3  3  3  3  3  3  3  3  3  3  3  3  3  3  3  3  3  3  3  3  3  3  2  1  1  1  1  1  1  1  1  1  1  1  1  1  1  1  1  1  1  1  1  1  1  1  1  1  1  1  1  1  1  1  1  1  1  1  1  1  1  1  1  1  1  1  1  1  1  1  1  1  1  1  1  1  1  1  1  1  1  1  1  1  1  1  1  1  1  1  0  0  0  0  0  0  0  0  0  0  0  0  0  0  0  0  0  0  0  0  0  0  0  0  3  3  3  3  3  3  3  3  3  3  3  3  3  3  3  3  3  3  3  3  3  3  3  3  3  3  3  3  3  3  3  3  3  3  3  3  3  3  3  3  3  3  3  3  3  3  3  3  3  3  3  3  3  3  3  3  3  3  3  3 
 3  3  3  3  3  3  3  3  3  3  3  3  3  3  3  3  3  3  3  3  3  3  3  3  3  3  3  3  3  3  3  3  3  3  3  3  3  3  3  3  3  3  3  3  3  3  3  3  3  3  3  3  3  3  3  3  3  3  3  3  3  3  3  3  3  3  3  3  3  3  3  3  3  3  3  3  3  3  3  3  3  3  3  3  3  3  3  3  3  2  1  1  1  1  1  1  1  1  1  1  1  1  1  1  1  1  1  1  1  1  1  1  1  1  1  1  1  1  1  1  1  1  1  1  1  1  1  1  1  1  1  1  1  1  1  1  1  1  1  1  1  1  1  1  1  1  1  1  1  1  1  1  1  1  1  1  1  0  0  0  0  0  0  0  0  0  0  0  0  0  0  0  0  0  0  0  0  0  0  0  3  3  3  3  3  3  3  3  3  3  3  3  3  3  3  3  3  3  3  3  3  3  3  3  3  3  3  3  3  3  3  3  3  3  3  3  3  3  3  3  3  3  3  3  3  3  3  3  3  3  3  3  3  3  3  3  3  3  3  3  3 
 3  3  3  3  3  3  3  3  3  3  3  3  3  3  3  3  3  3  3  3  3  3  3  3  3  3  3  3  3  3  3  3  3  3  3  3  3  3  3  3  3  3  3  3  3  3  3  3  3  3  3  3  3  3  3  3  3  3  3  3  3  3  3  3  3  3  3  3  3  3  3  3  3  3  3  3  3  3  3  3  3  3  3  3  3  3  3  3  3  2  1  1  1  1  1  1  1  1  1  1  1  1  1  1  1  1  1  1  1  1  1  1  1  1  1  1  1  1  1  1  1  1  1  1  1  1  1  1  1  1  1  1  1  1  1  1  1  1  1  1  1  1  1  1  1  1  1  1  1  1  1  1  1  1  1  1  0  0  0  0  0  0  0  0  0  0  0  0  0  0  0  0  0  0  0  0  0  0  0  0  3  3  3  3  3  3  3  3  3  3  3  3  3  3  3  3  3  3  3  3  3  3  3  3  3  3  3  3  3  3  3  3  3  3  3  3  3  3  3  3  3  3  3  3  3  3  3  3  3  3  3  3  3  3  3  3  3  3  3  3  3 
 3  3  3  3  3  3  3  3  3  3  3  3  3  3  3  3  3  3  3  3  3  3  3  3  3  3  3  3  3  3  3  3  3  3  3  3  3  3  3  3  3  3  3  3  3  3  3  3  3  3  3  3  3  3  3  3  3  3  3  3  3  3  3  3  3  3  3  3  3  3  3  3  3  3  3  3  3  3  3  3  3  3  3  3  3  3  3  3  3  2  1  1  1  1  1  1  1  1  1  1  1  1  1  1  1  1  1  1  1  1  1  1  1  1  1  1  1  1  1  1  1  1  1  1  1  1  1  1  1  1  1  1  1  1  1  1  1  1  1  1  1  1  1  1  1  1  1  1  1  1  1  1  1  1  1  1  0  0  0  0  0  0  0  0  0  0  0  0  0  0  0  0  0  0  0  0  0  0  0  3  3  3  3  3  3  3  3  3  3  3  3  3  3  3  3  3  3  3  3  3  3  3  3  3  3  3  3  3  3  3  3  3  3  3  3  3  3  3  3  3  3  3  3  3  3  3  3  3  3  3  3  3  3  3  3  3  3  3  3  3  3 
 3  3  3  3  3  3  3  3  3  3  3  3  3  3  3  3  3  3  3  3  3  3  3  3  3  3  3  3  3  3  3  3  3  3  3  3  3  3  3  3  3  3  3  3  3  3  3  3  3  3  3  3  3  3  3  3  3  3  3  3  3  3  3  3  3  3  3  3  3  3  3  3  3  3  3  3  3  3  3  3  3  3  3  3  3  3  3  3  3  2  1  1  1  1  1  1  1  1  1  1  1  1  1  1  1  1  1  1  1  1  1  1  1  1  1  1  1  1  1  1  1  1  1  1  1  1  1  1  1  1  1  1  1  1  1  1  1  1  1  1  1  1  1  1  1  1  1  1  1  1  1  1  1  1  1  0  0  0  0  0  0  0  0  0  0  0  0  0  0  0  0  0  0  0  0  0  0  0  0  3  3  3  3  3  3  3  3  3  3  3  3  3  3  3  3  3  3  3  3  3  3  3  3  3  3  3  3  3  3  3  3  3  3  3  3  3  3  3  3  3  3  3  3  3  3  3  3  3  3  3  3  3  3  3  3  3  3  3  3  3  3 
 3  3  3  3  3  3  3  3  3  3  3  3  3  3  3  3  3  3  3  3  3  3  3  3  3  3  3  3  3  3  3  3  3  3  3  3  3  3  3  3  3  3  3  3  3  3  3  3  3  3  3  3  3  3  3  3  3  3  3  3  3  3  3  3  3  3  3  3  3  3  3  3  3  3  3  3  3  3  3  3  3  3  3  3  3  3  3  3  3  2  1  1  1  1  1  1  1  1  1  1  1  1  1  1  1  1  1  1  1  1  1  1  1  1  1  1  1  1  1  1  1  1  1  1  1  1  1  1  1  1  1  1  1  1  1  1  1  1  1  1  1  1  1  1  1  1  1  1  1  1  1  1  1  1  1  0  0  0  0  0  0  0  0  0  0  0  0  0  0  0  0  0  0  0  0  0  0  0  3  3  3  3  3  3  3  3  3  3  3  3  3  3  3  3  3  3  3  3  3  3  3  3  3  3  3  3  3  3  3  3  3  3  3  3  3  3  3  3  3  3  3  3  3  3  3  3  3  3  3  3  3  3  3  3  3  3  3  3  3  3  3 
 3  3  3  3  3  3  3  3  3  3  3  3  3  3  3  3  3  3  3  3  3  3  3  3  3  3  3  3  3  3  3  3  3  3  3  3  3  3  3  3  3  3  3  3  3  3  3  3  3  3  3  3  3  3  3  3  3  3  3  3  3  3  3  3  3  3  3  3  3  3  3  3  3  3  3  3  3  3  3  3  3  3  3  3  3  3  3  3  3  2  1  1  1  1  1  1  1  1  1  1  1  1  1  1  1  1  1  1  1  1  1  1  1  1  1  1  1  1  1  1  1  1  1  1  1  1  1  1  1  1  1  1  1  1  1  1  1  1  1  1  1  1  1  1  1  1  1  1  1  1  1  1  1  1  0  0  0  0  0  0  0  0  0  0  0  0  0  0  0  0  0  0  0  0  0  0  0  0  3  3  3  3  3  3  3  3  3  3  3  3  3  3  3  3  3  3  3  3  3  3  3  3  3  3  3  3  3  3  3  3  3  3  3  3  3  3  3  3  3  3  3  3  3  3  3  3  3  3  3  3  3  3  3  3  3  3  3  3  3  3  3 
 3  3  3  3  3  3  3  3  3  3  3  3  3  3  3  3  3  3  3  3  3  3  3  3  3  3  3  3  3  3  3  3  3  3  3  3  3  3  3  3  3  3  3  3  3  3  3  3  3  3  3  3  3  3  3  3  3  3  3  3  3  3  3  3  3  3  3  3  3  3  3  3  3  3  3  3  3  3  3  3  3  3  3  3  3  3  3  3  3  2  1  1  1  1  1  1  1  1  1  1  1  1  1  1  1  1  1  1  1  1  1  1  1  1  1  1  1  1  1  1  1  1  1  1  1  1  1  1  1  1  1  1  1  1  1  1  1  1  1  1  1  1  1  1  1  1  1  1  1  1  1  1  1  1  0  0  0  0  0  0  0  0  0  0  0  0  0  0  0  0  0  0  0  0  0  0  0  3  3  3  3  3  3  3  3  3  3  3  3  3  3  3  3  3  3  3  3  3  3  3  3  3  3  3  3  3  3  3  3  3  3  3  3  3  3  3  3  3  3  3  3  3  3  3  3  3  3  3  3  3  3  3  3  3  3  3  3  3  3  3  3 
 3  3  3  3  3  3  3  3  3  3  3  3  3  3  3  3  3  3  3  3  3  3  3  3  3  3  3  3  3  3  3  3  3  3  3  3  3  3  3  3  3  3  3  3  3  3  3  3  3  3  3  3  3  3  3  3  3  3  3  3  3  3  3  3  3  3  3  3  3  3  3  3  3  3  3  3  3  3  3  3  3  3  3  3  3  3  3  3  3  2  1  1  1  1  1  1  1  1  1  1  1  1  1  1  1  1  1  1  1  1  1  1  1  1  1  1  1  1  1  1  1  1  1  1  1  1  1  1  1  1  1  1  1  1  1  1  1  1  1  1  1  1  1  1  1  1  1  1  1  1  1  1  1  0  0  0  0  0  0  0  0  0  0  0  0  0  0  0  0  0  0  0  0  0  0  0  0  3  3  3  3  3  3  3  3  3  3  3  3  3  3  3  3  3  3  3  3  3  3  3  3  3  3  3  3  3  3  3  3  3  3  3  3  3  3  3  3  3  3  3  3  3  3  3  3  3  3  3  3  3  3  3  3  3  3  3  3  3  3  3  3 
 3  3  3  3  3  3  3  3  3  3  3  3  3  3  3  3  3  3  3  3  3  3  3  3  3  3  3  3  3  3  3  3  3  3  3  3  3  3  3  3  3  3  3  3  3  3  3  3  3  3  3  3  3  3  3  3  3  3  3  3  3  3  3  3  3  3  3  3  3  3  3  3  3  3  3  3  3  3  3  3  3  3  3  3  3  3  3  3  3  2  1  1  1  1  1  1  1  1  1  1  1  1  1  1  1  1  1  1  1  1  1  1  1  1  1  1  1  1  1  1  1  1  1  1  1  1  1  1  1  1  1  1  1  1  1  1  1  1  1  1  1  1  1  1  1  1  1  1  1  1  1  1  0  0  0  0  0  0  0  0  0  0  0  0  0  0  0  0  0  0  0  0  0  0  0  0  0  3  3  3  3  3  3  3  3  3  3  3  3  3  3  3  3  3  3  3  3  3  3  3  3  3  3  3  3  3  3  3  3  3  3  3  3  3  3  3  3  3  3  3  3  3  3  3  3  3  3  3  3  3  3  3  3  3  3  3  3  3  3  3  3 
 3  3  3  3  3  3  3  3  3  3  3  3  3  3  3  3  3  3  3  3  3  3  3  3  3  3  3  3  3  3  3  3  3  3  3  3  3  3  3  3  3  3  3  3  3  3  3  3  3  3  3  3  3  3  3  3  3  3  3  3  3  3  3  3  3  3  3  3  3  3  3  3  3  3  3  3  3  3  3  3  3  3  3  3  3  3  3  3  3  2  1  1  1  1  1  1  1  1  1  1  1  1  1  1  1  1  1  1  1  1  1  1  1  1  1  1  1  1  1  1  1  1  1  1  1  1  1  1  1  1  1  1  1  1  1  1  1  1  1  1  1  1  1  1  1  1  1  1  1  1  1  1  0  0  0  0  0  0  0  0  0  0  0  0  0  0  0  0  0  0  0  0  0  0  0  0  3  3  3  3  3  3  3  3  3  3  3  3  3  3  3  3  3  3  3  3  3  3  3  3  3  3  3  3  3  3  3  3  3  3  3  3  3  3  3  3  3  3  3  3  3  3  3  3  3  3  3  3  3  3  3  3  3  3  3  3  3  3  3  3  3 
 3  3  3  3  3  3  3  3  3  3  3  3  3  3  3  3  3  3  3  3  3  3  3  3  3  3  3  3  3  3  3  3  3  3  3  3  3  3  3  3  3  3  3  3  3  3  3  3  3  3  3  3  3  3  3  3  3  3  3  3  3  3  3  3  3  3  3  3  3  3  3  3  3  3  3  3  3  3  3  3  3  3  3  3  3  3  3  3  3  2  1  1  1  1  1  1  1  1  1  1  1  1  1  1  1  1  1  1  1  1  1  1  1  1  1  1  1  1  1  1  1  1  1  1  1  1  1  1  1  1  1  1  1  1  1  1  1  1  1  1  1  1  1  1  1  1  1  1  1  1  1  1  0  0  0  0  0  0  0  0  0  0  0  0  0  0  0  0  0  0  0  0  0  0  0  0  3  3  3  3  3  3  3  3  3  3  3  3  3  3  3  3  3  3  3  3  3  3  3  3  3  3  3  3  3  3  3  3  3  3  3  3  3  3  3  3  3  3  3  3  3  3  3  3  3  3  3  3  3  3  3  3  3  3  3  3  3  3  3  3  3 
 3  3  3  3  3  3  3  3  3  3  3  3  3  3  3  3  3  3  3  3  3  3  3  3  3  3  3  3  3  3  3  3  3  3  3  3  3  3  3  3  3  3  3  3  3  3  3  3  3  3  3  3  3  3  3  3  3  3  3  3  3  3  3  3  3  3  3  3  3  3  3  3  3  3  3  3  3  3  3  3  3  3  3  3  3  3  3  3  3  2  1  1  1  1  1  1  1  1  1  1  1  1  1  1  1  1  1  1  1  1  1  1  1  1  1  1  1  1  1  1  1  1  1  1  1  1  1  1  1  1  1  1  1  1  1  1  1  1  1  1  1  1  1  1  1  1  1  1  1  1  1  1  1  1  0  0  0  0  0  0  0  0  0  0  0  0  0  0  0  0  0  0  0  0  0  3  3  3  3  3  3  3  3  3  3  3  3  3  3  3  3  3  3  3  3  3  3  3  3  3  3  3  3  3  3  3  3  3  3  3  3  3  3  3  3  3  3  3  3  3  3  3  3  3  3  3  3  3  3  3  3  3  3  3  3  3  3  3  3  3  3 
 3  3  3  3  3  3  3  3  3  3  3  3  3  3  3  3  3  3  3  3  3  3  3  3  3  3  3  3  3  3  3  3  3  3  3  3  3  3  3  3  3  3  3  3  3  3  3  3  3  3  3  3  3  3  3  3  3  3  3  3  3  3  3  3  3  3  3  3  3  3  3  3  3  3  3  3  3  3  3  3  3  3  3  3  3  3  3  3  3  2  1  1  1  1  1  1  1  1  1  1  1  1  1  1  1  1  1  1  1  1  1  1  1  1  1  1  1  1  1  1  1  1  1  1  1  1  1  1  1  1  1  1  1  1  1  1  1  1  1  1  1  1  1  1  1  1  1  1  1  1  1  0  0  0  0  0  0  0  0  0  0  0  0  0  0  0  0  0  0  0  0  0  0  0  0  3  3  3  3  3  3  3  3  3  3  3  3  3  3  3  3  3  3  3  3  3  3  3  3  3  3  3  3  3  3  3  3  3  3  3  3  3  3  3  3  3  3  3  3  3  3  3  3  3  3  3  3  3  3  3  3  3  3  3  3  3  3  3  3  3  3 
 3  3  3  3  3  3  3  3  3  3  3  3  3  3  3  3  3  3  3  3  3  3  3  3  3  3  3  3  3  3  3  3  3  3  3  3  3  3  3  3  3  3  3  3  3  3  3  3  3  3  3  3  3  3  3  3  3  3  3  3  3  3  3  3  3  3  3  3  3  3  3  3  3  3  3  3  3  3  3  3  3  3  3  3  3  3  3  3  3  2  1  1  1  1  1  1  1  1  1  1  1  1  1  1  1  1  1  1  1  1  1  1  1  1  1  1  1  1  1  1  1  1  1  1  1  1  1  1  1  1  1  1  1  1  1  1  1  1  1  1  1  1  1  1  1  1  1  1  1  1  0  0  0  0  0  0  0  0  0  0  0  0  0  0  0  0  0  0  0  0  0  0  0  0  3  3  3  3  3  3  3  3  3  3  3  3  3  3  3  3  3  3  3  3  3  3  3  3  3  3  3  3  3  3  3  3  3  3  3  3  3  3  3  3  3  3  3  3  3  3  3  3  3  3  3  3  3  3  3  3  3  3  3  3  3  3  3  3  3  3  3 
 3  3  3  3  3  3  3  3  3  3  3  3  3  3  3  3  3  3  3  3  3  3  3  3  3  3  3  3  3  3  3  3  3  3  3  3  3  3  3  3  3  3  3  3  3  3  3  3  3  3  3  3  3  3  3  3  3  3  3  3  3  3  3  3  3  3  3  3  3  3  3  3  3  3  3  3  3  3  3  3  3  3  3  3  3  3  3  3  3  2  1  1  1  1  1  1  1  1  1  1  1  1  1  1  1  1  1  1  1  1  1  1  1  1  1  1  1  1  1  1  1  1  1  1  1  1  1  1  1  1  1  1  1  1  1  1  1  1  1  1  1  1  1  1  1  1  1  0  0  0  0  0  0  0  0  0  0  0  0  0  0  0  0  0  0  0  0  0  0  0  0  0  0  0  3  3  3  3  3  3  3  3  3  3  3  3  3  3  3  3  3  3  3  3  3  3  3  3  3  3  3  3  3  3  3  3  3  3  3  3  3  3  3  3  3  3  3  3  3  3  3  3  3  3  3  3  3  3  3  3  3  3  3  3  3  3  3  3  3  3  3 
 3  3  3  3  3  3  3  3  3  3  3  3  3  3  3  3  3  3  3  3  3  3  3  3  3  3  3  3  3  3  3  3  3  3  3  3  3  3  3  3  3  3  3  3  3  3  3  3  3  3  3  3  3  3  3  3  3  3  3  3  3  3  3  3  3  3  3  3  3  3  3  3  3  3  3  3  3  3  3  3  3  3  3  3  3  3  3  3  3  2  1  1  1  1  1  1  1  1  1  1  1  1  1  1  1  1  1  1  1  1  1  1  1  1  1  1  1  1  1  1  1  1  1  1  1  1  1  1  1  1  1  1  1  1  1  1  1  1  1  1  1  1  1  1  1  0  0  0  0  0  0  0  0  0  0  0  0  0  0  0  0  0  0  0  0  0  0  0  0  0  0  0  0  3  3  3  3  3  3  3  3  3  3  3  3  3  3  3  3  3  3  3  3  3  3  3  3  3  3  3  3  3  3  3  3  3  3  3  3  3  3  3  3  3  3  3  3  3  3  3  3  3  3  3  3  3  3  3  3  3  3  3  3  3  3  3  3  3  3  3  3 
 3  3  3  3  3  3  3  3  3  3  3  3  3  3  3  3  3  3  3  3  3  3  3  3  3  3  3  3  3  3  3  3  3  3  3  3  3  3  3  3  3  3  3  3  3  3  3  3  3  3  3  3  3  3  3  3  3  3  3  3  3  3  3  3  3  3  3  3  3  3  3  3  3  3  3  3  3  3  3  3  3  3  3  3  3  3  3  3  3  2  1  1  1  1  1  1  1  1  1  1  1  1  1  1  1  1  1  1  1  1  1  1  1  1  1  1  1  1  1  1  1  1  1  1  1  1  1  1  1  1  1  1  1  1  1  1  1  1  1  1  1  1  0  0  0  0  0  0  0  0  0  0  0  0  0  0  0  0  0  0  0  0  0  0  0  0  0  0  0  0  0  0  0  3  3  3  3  3  3  3  3  3  3  3  3  3  3  3  3  3  3  3  3  3  3  3  3  3  3  3  3  3  3  3  3  3  3  3  3  3  3  3  3  3  3  3  3  3  3  3  3  3  3  3  3  3  3  3  3  3  3  3  3  3  3  3  3  3  3  3  3 
 3  3  3  3  3  3  3  3  3  3  3  3  3  3  3  3  3  3  3  3  3  3  3  3  3  3  3  3  3  3  3  3  3  3  3  3  3  3  3  3  3  3  3  3  3  3  3  3  3  3  3  3  3  3  3  3  3  3  3  3  3  3  3  3  3  3  3  3  3  3  3  3  3  3  3  3  3  3  3  3  3  3  3  3  3  3  3  3  3  2  1  1  1  1  1  1  1  1  1  1  1  1  1  1  1  1  1  1  1  1  1  1  1  1  1  1  1  1  1  1  1  1  1  1  1  1  1  1  1  1  1  1  1  1  1  1  1  1  1  1  1  0  0  0  0  0  0  0  0  0  0  0  0  0  0  0  0  0  0  0  0  0  0  0  0  0  0  0  0  0  0  0  0  3  3  3  3  3  3  3  3  3  3  3  3  3  3  3  3  3  3  3  3  3  3  3  3  3  3  3  3  3  3  3  3  3  3  3  3  3  3  3  3  3  3  3  3  3  3  3  3  3  3  3  3  3  3  3  3  3  3  3  3  3  3  3  3  3  3  3  3 
 3  3  3  3  3  3  3  3  3  3  3  3  3  3  3  3  3  3  3  3  3  3  3  3  3  3  3  3  3  3  3  3  3  3  3  3  3  3  3  3  3  3  3  3  3  3  3  3  3  3  3  3  3  3  3  3  3  3  3  3  3  3  3  3  3  3  3  3  3  3  3  3  3  3  3  3  3  3  3  3  3  3  3  3  3  3  3  3  3  2  1  1  1  1  1  1  1  1  1  1  1  1  1  1  1  1  1  1  1  1  1  1  1  1  1  1  1  1  1  1  1  1  1  1  1  1  1  1  1  1  1  1  1  1  1  1  1  1  1  0  0  0  0  0  0  0  0  0  0  0  0  0  0  0  0  0  0  0  0  0  0  0  0  0  0  0  0  0  0  0  0  0  3  3  3  3  3  3  3  3  3  3  3  3  3  3  3  3  3  3  3  3  3  3  3  3  3  3  3  3  3  3  3  3  3  3  3  3  3  3  3  3  3  3  3  3  3  3  3  3  3  3  3  3  3  3  3  3  3  3  3  3  3  3  3  3  3  3  3  3  3 
 3  3  3  3  3  3  3  3  3  3  3  3  3  3  3  3  3  3  3  3  3  3  3  3  3  3  3  3  3  3  3  3  3  3  3  3  3  3  3  3  3  3  3  3  3  3  3  3  3  3  3  3  3  3  3  3  3  3  3  3  3  3  3  3  3  3  3  3  3  3  3  3  3  3  3  3  3  3  3  3  3  3  3  3  3  3  3  3  3  2  1  1  1  1  1  1  1  1  1  1  1  1  1  1  1  1  1  1  1  1  1  1  1  1  1  1  1  1  1  1  1  1  1  1  1  1  1  1  1  1  1  1  1  1  1  1  1  1  1  0  0  0  0  0  0  0  0  0  0  0  0  0  0  0  0  0  0  0  0  0  0  0  0  0  0  0  0  0  0  0  0  0  3  3  3  3  3  3  3  3  3  3  3  3  3  3  3  3  3  3  3  3  3  3  3  3  3  3  3  3  3  3  3  3  3  3  3  3  3  3  3  3  3  3  3  3  3  3  3  3  3  3  3  3  3  3  3  3  3  3  3  3  3  3  3  3  3  3  3  3  3 
 3  3  3  3  3  3  3  3  3  3  3  3  3  3  3  3  3  3  3  3  3  3  3  3  3  3  3  3  3  3  3  3  3  3  3  3  3  3  3  3  3  3  3  3  3  3  3  3  3  3  3  3  3  3  3  3  3  3  3  3  3  3  3  3  3  3  3  3  3  3  3  3  3  3  3  3  3  3  3  3  3  3  3  3  3  3  3  3  3  3  2  2  2  2  2  2  2  2  2  2  2  2  2  2  2  2  2  2  2  2  2  2  2  2  2  2  2  2  2  2  2  2  2  2  2  2  2  2  2  2  2  2  2  2  2  2  3  0  0  0  0  0  0  0  0  0  0  0  0  0  0  0  0  0  0  0  0  0  0  0  0  0  0  0  0  0  0  0  0  0  0  3  3  3  3  3  3  3  3  3  3  3  3  3  3  3  3  3  3  3  3  3  3  3  3  3  3  3  3  3  3  3  3  3  3  3  3  3  3  3  3  3  3  3  3  3  3  3  3  3  3  3  3  3  3  3  3  3  3  3  3  3  3  3  3  3  3  3  3  3  3 
$
      0.  0.  0.  0.  0
$ -------------------------------------------------------------------- $
$ End of input file                                                    $
$ -------------------------------------------------------------------- $
