$ WAVEWATCH III Point output post-processing
$ ------------------------------------------
  TIME  DT  999
$
  POINT
 -1
$
  ITYPE
  3 0. 0. 51 FORMAT
$
$ End of input file
