$ -------------------------------------------------------------------- $
$ WAVEWATCH III Grid preprocessor input file                           $
$ -------------------------------------------------------------------- $
  'East Pacific 10 min wave grid '
$
   1.07  0.035  50  36  0.5
$
   F T T T F T
$
$   900. 615. 450.  15.                              
$  1200. 615. 600.  15.                              
   1800. 615. 900.  15.                              
$
  &SIN4 BETAMAX = 1.33 /
  &MISC CICE0 = 0.25, CICEN = 0.75, FLAGTR = 4 /
END OF NAMELISTS
$
    'RECT' T 'NONE'
    511    301
      1.     1.     6.
    130.   -20.     1.
     -0.1 2.50  10  0.001 1 1 '(....)' 'NAME' 'ep_10m.bot'
 999000  999000  999000  999000  999000  999000  999000  999000  999000  999000  999000  999000  999000  999000  999000  999000  999000  999000  999000  999000  999000  999000  999000  999000  999000  999000  999000  999000  999000  999000  999000  999000  999000  999000  999000  999000  999000  999000  999000  999000  999000  999000  999000  999000  999000  999000  999000  999000  999000  999000  999000  999000  999000  999000  999000  999000  999000  999000  999000  999000  999000  999000  999000  999000  999000  999000  999000  999000  999000  999000  999000  999000  999000  999000  999000  999000  999000  999000  999000  999000  999000  999000  999000  999000  999000  999000  999000  999000  999000  999000  999000  999000  999000  999000  999000  999000  999000  999000  999000  999000  999000  999000  999000  999000  999000  999000  999000  999000  999000  -4600  -7868  -15697  -23149  -28070  -32330  -39000  -41628  -45152  -22927  -31233  -35677  -35802  -32975  -23020  -107653  -248471  -298717  -246876  -284397  -242788  -301612  -305736  -350768  -345860  -270810  -205667  -476165  -587752  -916182  -1331744  -1693207  -1930242  -2033033  -2282000  -2470525  -2715083  -2861140  -2867162  -2960570  -3108107  -3144384  -3132942  -3120760  -3164556  -3161298  -3162479  -2589172  -2375851  -2963876  -2960949  -2882289  -2840686  -2757586  -2664479  -2610223  -2568000  -2558074  -2497736  -2349394  -2066421  -1361264  -420103  -219752  -132463  -619556  -1839074  -2564017  -2768990  -2715496  -2126314  -1502758  -895727  -463186  -1053714  -1871647  -2093033  -1055323  -1143950  -1950975  -3134051  -3499017  -3613380  -3686343  -3636347  -3488562  -3509264  -3431149  -3552050  -3591760  -3577132  -3581231  -2776628  -728603  -23500  -16271  -30914  -336159  -1602603  -2518132  -2534884  -2848430  -2978083  -3008636  -2722702  -2329397  -1877306  -1640107  -1795091  -2051083  -2783017  -3308157  -3635364  -3805554  -3728479  -3643157  -3934562  -4244132  -4583050  -4959281  -5806727  -6198488  -5849025  -5304455  -4111917  -1764240  -897198  -1362017  -1375537  -1262545  -1226752  -1695041  -2365843  -2127653  -1955975  -2063455  -2997372  -3185579  -3141835  -3146421  -3156058  -3078810  -3080587  -3066372  -3162231  -3177041  -3013603  -2984421  -2845091  -2893950  -2926603  -2829909  -2879124  -2865868  -2844694  -2802008  -2894355  -3130645  -3135058  -3130132  -3151843  -3029504  -2844471  -3005355  -2978579  -2566107  -3079372  -2790719  -2852405  -2614107  -2508397  -2557744  -2757669  -2260372  -2071537  -1709281  -1994008  -3352810  -3894388  -3108802  -3304926  -3949124  -3524240  -3119050  -3084537  -3175744  -3296074  -3324884  -3270438  -3178190  -3095421  -3110901  -2988802  -2872008  -2462479  -2076405  -1612455  -1334959  -1465628  -1404802  -970339  -412653  -1186901  -1823314  -2625182  -2716628  -2657653  -2785430  -2422529  -2268030  -2567124  -2334198  -2142192  -2216446  -2614562  -2535980  -2251174  -2229545  -2170253  -1858174  -1519488  -1606576  -726920  -23646  -63453  -824992  -1369231  -2541606  -3675066  -4193496  -4535505  -6393140  -8615314  -8222222  -7059694  -6142818  -5773222  -5857777  -5742372  -5670283  -5604843  -5657231  -5514313  -5512471  -5472860  -5402212  -5331479  -5316934  -5228798  -5227182  -5233934  -5329737  -5314595  -5364463  -5431596  -5539008  -5595190  -5505677  -5040149  -4846099  -5184010  -5421934  -5442504  -4818697  -1569317  -2891017  -5002091  -5267116  -5311983  -5048343  -3968554  -3850545  -5190313  -5139017  -4991298  -4938545  -5158107  -5151215  -4908960  -4916769  -4892950  -4789061  -4997372  -4916942  -4971374  -5047802  -4927091  -5008768  -5192942  -5103537  -5003515  -4853041  -4740091  -4863414  -4744372  -4986331  -4767444  -4822727  -4855017  -5071101  -4902744  -3991603  -4775828  -4997496  -4876008  -4892091  -4795702  -4680289  -4708374  -4708008  -4645231  -4727909  -4742959  -4729860  -4860152  -4819190  -4744223  -4737646  -4552959  -4167620  -3894818  -3076322  -1929689  -3438162  -4136099  -3526099  -3778232  -2804298  -3971826  -4344758  -4375182  -4505992  -4814657  -4784165  -4394653  -4262354  -4589554  -4634959  -4587121  -4612653  -4592248  -4682909  -4697760  -4628017  -4648354  -4705727  -4732570  -4791818  -4690992  -4642455  -4705414  -4712760  -4639504  -4488606  -4346678  -4141818  -4076727  -4523653  -4622405  -4370293  -4384306  -4497669  -4472273  -4472851  -4549521  -4373333  -4423934  -4367223  -3813374  -4072653  -4307314  -4590121  -4178355  -3638554  -3864768  -3837174  -3587306  -3484919  -3515083  -3570769  -3161768  -3069140  -3204463  -3538172  -3832934  -4069488  -4302030  -4396281  -4323479  -3236869  -3967479  -4348124  -4567101  -4580736  -4660380  -4592475  -4683628  -4441421  -4314788  -3988331  -3058959  -2688758 
 999000  999000  999000  999000  999000  999000  999000  999000  999000  999000  999000  999000  999000  999000  999000  999000  999000  999000  999000  999000  999000  999000  999000  999000  999000  999000  999000  999000  999000  999000  999000  999000  999000  999000  999000  999000  999000  999000  999000  999000  999000  999000  999000  999000  999000  999000  999000  999000  999000  999000  999000  999000  999000  999000  999000  999000  999000  999000  999000  999000  999000  999000  999000  999000  999000  999000  999000  999000  999000  999000  999000  999000  999000  999000  999000  999000  999000  999000  999000  999000  999000  999000  999000  999000  999000  999000  999000  999000  999000  999000  999000  999000  999000  999000  999000  999000  999000  999000  999000  999000  999000  999000  999000  999000  999000  999000  -4220  -6632  -13345  -18936  -23091  -33478  -39500  -43573  -46633  -32755  -43827  -45167  -39682  -35755  -36878  -22670  -33500  -92411  -219673  -298255  -293111  -238382  -183973  -219144  -151655  -148700  -274433  -306618  -271709  -400500  -625218  -703045  -1085678  -1492982  -1857236  -1961222  -2121627  -2329136  -2443167  -2624273  -2876882  -2865133  -2548209  -3045318  -3207556  -3159155  -3124845  -3130222  -3142745  -3185127  -2183922  -2037755  -2319527  -2835056  -2900309  -2841373  -2814300  -2757255  -2675827  -2547333  -2584309  -2537636  -2438178  -1641982  -157900  -91678  -439018  -420773  -505337  -1645391  -2402718  -2476089  -2405918  -2446164  -1504856  -1663709  -2376518  -2907033  -3167682  -2739018  -1812222  -2207282  -2708427  -3402989  -3509745  -3542318  -3544978  -3546227  -3583218  -3558610  -3627109  -3497991  -3488400  -3513545  -3102600  -975153  -31184  -32645  -23170  -473907  -1485436  -2824820  -3119991  -3002955  -3135020  -3143827  -3010264  -1554110  -650673  -881391  -1393790  -1543718  -2302991  -3097010  -3613391  -3858109  -3815330  -3840855  -4041627  -4431140  -4627282  -5026000  -5366890  -5886036  -5677964  -5448370  -4833436  -3301009  -1918900  -1250391  -1165009  -1161190  -1453400  -1578636  -1809410  -3049691  -2409655  -1779130  -2031836  -2678209  -2969550  -3133936  -3049936  -3165930  -3088909  -3069809  -3109620  -3117173  -3065464  -2771909  -2943209  -2763582  -3056380  -2550391  -2849745  -2921790  -2809282  -2631345  -3117990  -2881155  -2868309  -3069970  -3185418  -3068536  -2883070  -3010164  -3091291  -3151580  -2992445  -2693273  -3010390  -2939164  -2876255  -2752410  -2995427  -2769927  -2600860  -2708164  -2511655  -1883760  -2149600  -2238736  -3256280  -3119791  -2954282  -3626780  -3560591  -3314673  -3038660  -3021709  -3147182  -3280740  -3356618  -3270164  -3157920  -2964591  -2823409  -2389700  -1670464  -1325482  -1232500  -1489045  -1000536  -667600  -536963  -1027426  -2055120  -2647791  -2612336  -2448350  -2642555  -2431545  -2496144  -2619364  -2326591  -2095689  -2222745  -2530418  -2590667  -2373991  -2235682  -2221511  -1839627  -1057238  -1521198  -1216164  -201211  -9382  -427673  -1184036  -2164411  -3432564  -4531200  -4955278  -5598964  -7809182  -8721756  -7422618  -6415382  -5712133  -5857736  -5779264  -5635744  -5561927  -5506709  -5399967  -5342091  -5381091  -5314533  -5252355  -5257764  -5099044  -5128118  -5144155  -5311056  -5242345  -5151827  -5318789  -5341700  -5437791  -5311367  -5260891  -5152327  -5239889  -5262100  -5263700  -4992500  -4081136  -4408764  -5040344  -5086009  -5152600  -5109578  -5179300  -4277718  -5163878  -5179527  -4981118  -4997278  -5223964  -5186382  -4520778  -5045700  -4960227  -5122567  -4872027  -4875664  -5014256  -4901355  -4940291  -5088278  -5115073  -5152200  -4981944  -4912364  -4784764  -4739789  -4835900  -5012727  -4878889  -4965282  -4863045  -5155900  -4878118  -4068436  -4666867  -5035800  -4918536  -4748111  -4812318  -4795882  -4867922  -4791382  -4740518  -4664100  -4806418  -4822745  -4932656  -4935100  -4893518  -4860100  -4637718  -4408682  -4081400  -1973664  -2331645  -3471844  -2197427  -1214691  -3815067  -4125764  -4181191  -4198800  -3921345  -4180145  -4598800  -4484173  -4827945  -4846433  -4750836  -4500018  -4536456  -4555155  -4653955  -4606189  -4581882  -4485209  -4580033  -4712482  -4766409  -4654456  -4645118  -4664291  -4680511  -4618982  -4618327  -4308089  -4306527  -4337555  -4122622  -4154200  -4399300  -4536400  -4536582  -4387509  -4575778  -4329573  -4452073  -4354678  -4411000  -4406991  -4265889  -3751509  -3983064  -4551300  -4579655  -4641336  -4466544  -4599082  -4649009  -4638789  -4539036  -4458518  -4524589  -4541600  -4641627  -4514889  -4351391  -3871909  -3933011  -3976091  -4179209  -4147300  -4310645  -4420764  -4455411  -4557036  -4706036  -4527722  -4661918  -4385155  -3954844  -3766982  -2899182  -929882 
 999000  999000  999000  999000  999000  999000  999000  999000  999000  999000  999000  999000  999000  999000  999000  999000  999000  999000  999000  999000  999000  999000  999000  999000  999000  999000  999000  999000  999000  999000  999000  999000  999000  999000  999000  999000  999000  999000  999000  999000  999000  999000  999000  999000  999000  999000  999000  999000  999000  999000  999000  999000  999000  999000  999000  999000  999000  999000  999000  999000  999000  999000  999000  999000  999000  999000  999000  999000  999000  999000  999000  999000  999000  999000  999000  999000  999000  999000  999000  999000  999000  999000  999000  999000  999000  999000  999000  999000  999000  999000  999000  999000  999000  999000  999000  999000  999000  999000  999000  999000  999000  999000  999000  999000  999000  999000  -7297  -20522  -26078  -28809  -31618  -44911  -53191  -56618  -48822  -27374  -43409  -37111  -32291  -36018  -32933  -73309  -150227  -262167  -302555  -358336  -396767  -304409  -261882  -331533  -144945  -48436  -209944  -311609  -315573  -503156  -549864  -780564  -1262533  -1620773  -1952127  -2035422  -2164345  -2330391  -2439289  -2710982  -2870609  -2790300  -1815636  -2693491  -3243744  -3165236  -3106782  -3157667  -3168373  -3193027  -2544156  -1680036  -1898091  -2761167  -2985100  -2848309  -2804600  -2770900  -2684836  -2650756  -2594282  -2624127  -2401622  -926164  -40609  -276711  -466409  -815818  -1148033  -1723055  -2381564  -2424956  -2169945  -2251555  -2519722  -2502009  -2560382  -2760289  -3185800  -2823418  -2489933  -2937055  -2961036  -3532189  -3538000  -3478609  -3499456  -3577627  -3543609  -3313020  -3518582  -3499918  -3489930  -3286627  -1668972  -67340  -27611  -32455  -334040  -1516409  -2438845  -3137360  -3268109  -3270918  -3259560  -3124582  -2528836  -1734550  -872287  -1760482  -2199780  -2851209  -3533636  -3765470  -3869527  -3846173  -3839390  -3992827  -4402455  -4575670  -4710200  -5026327  -5592570  -5431264  -5215473  -4522900  -3317091  -1919100  -1266420  -967636  -691099  -652747  -1226300  -1681073  -2377950  -3096827  -1819927  -1797100  -2109373  -2890673  -3068540  -3072318  -2995882  -3106110  -2987609  -3085364  -2920790  -3134200  -2897436  -2711573  -2971045  -2979464  -2562330  -2403864  -2820182  -2754070  -2804473  -2605618  -2777820  -2775245  -2930073  -3213910  -3244609  -3263827  -3118630  -3054673  -3069136  -3125240  -2684073  -3013073  -3125750  -3074273  -3260073  -3145130  -2939045  -2929982  -2700880  -3091700  -3188218  -2278620  -2464873  -2128082  -2890010  -3408773  -2985264  -2607150  -3314391  -3697227  -2952040  -2774582  -3062764  -3296760  -3371782  -3293455  -2995200  -2673555  -2592236  -2296080  -1612473  -1205818  -1348610  -1644055  -1393609  -880870  -1010973  -793464  -2268420  -2399936  -2732473  -2678830  -2620445  -2234973  -2487278  -2435609  -2254600  -2133444  -2184282  -2499736  -2627689  -2365527  -2271118  -2179011  -1962527  -1236398  -1056753  -1532491  -439373  -187921  -156554  -1053464  -1962522  -3063227  -4117009  -4654078  -5227755  -7361145  -8980267  -7778636  -6679573  -6150333  -5897145  -5645518  -5614689  -5528155  -5487364  -5473111  -5401464  -5373855  -5401489  -5365445  -5295345  -5103622  -5045218  -5049418  -5257667  -5115582  -5085864  -5275144  -5247909  -5324336  -5254033  -5263155  -5226918  -5216178  -5284191  -5272327  -5177433  -5034045  -5213745  -5099133  -5138364  -5050973  -5006044  -5136982  -5150609  -5276578  -5269164  -5105318  -5044011  -4988736  -4991982  -4711144  -5027573  -4725200  -4988789  -5098300  -4988973  -5079722  -4988445  -4940836  -4970544  -4884809  -5086336  -4904056  -4803591  -4697309  -4888267  -4787027  -4998564  -4918833  -4932255  -4977936  -4867467  -4858709  -4710818  -4652544  -4841982  -4966355  -4832722  -4895109  -4814364  -4910556  -4834700  -4735409  -4825833  -4955264  -4945200  -4970100  -4938100  -4867664  -4739567  -4768864  -4449818  -4169456  -3159900  -3692782  -4130856  -3853682  -3745391  -4447311  -4434391  -4365309  -4690944  -4639900  -4603036  -4564189  -4794136  -4729445  -4657778  -4679864  -4581000  -4629844  -4642591  -4636927  -4644056  -4560709  -4619082  -4592767  -4661191  -4698482  -4551811  -4530073  -4645245  -4650933  -4549073  -4517891  -4521133  -4484082  -4419491  -4524056  -4643673  -4470109  -4615589  -4442418  -4472136  -4629456  -4572864  -4427673  -4446589  -4452991  -4432727  -4483722  -4211173  -3884445  -4195200  -4268100  -4437327  -4377733  -4142145  -3799318  -4235978  -4327455  -3695236  -3634522  -3558000  -4168091  -4234911  -4285809  -4419136  -4220633  -4071427  -4210018  -4393833  -4360536  -4490373  -4492300  -4561600  -4512273  -4548500  -4573900  -4215482  -3847544  -4094155  -4069855  -3481811 
 999000  999000  999000  999000  999000  999000  999000  999000  999000  999000  999000  999000  999000  999000  999000  999000  999000  999000  999000  999000  999000  999000  999000  999000  999000  999000  999000  999000  999000  999000  999000  999000  999000  999000  999000  999000  999000  999000  999000  999000  999000  999000  999000  999000  999000  999000  999000  999000  999000  999000  999000  999000  999000  999000  999000  999000  999000  999000  999000  999000  999000  999000  999000  999000  999000  999000  999000  999000  999000  999000  999000  999000  999000  999000  999000  999000  999000  999000  999000  999000  999000  999000  999000  999000  999000  999000  999000  999000  999000  999000  999000  999000  999000  999000  999000  999000  999000  999000  999000  999000  999000  999000  999000  999000  999000  -4974  -17058  -23240  -25283  -33967  -46777  -48586  -47306  -44860  -34704  -38033  -41479  -38131  -44099  -42134  -168374  -265017  -333463  -373970  -449479  -428215  -439525  -347430  -276190  -322747  -305512  -252645  -200000  -266860  -459545  -453646  -558256  -962769  -1442717  -1730380  -1910306  -2044283  -2128669  -2316421  -2570424  -2742595  -2849397  -2954455  -2903521  -3109446  -3282323  -3083818  -2890645  -3126313  -3081008  -3048851  -2250636  -1732860  -2139777  -3040788  -2962050  -2873025  -2744101  -2709289  -2775140  -2752576  -2734314  -2711521  -2548697  -1310388  -32479  -116889  -311744  -290620  -680040  -1789595  -2350149  -2274182  -1902488  -1708256  -1682465  -2254306  -2456264  -2917071  -3165620  -2949355  -2670828  -3204661  -3576430  -3474172  -3520140  -3410711  -3441798  -3588777  -3511992  -3567373  -3560165  -3550463  -3379655  -1988818  -186098  -41789  -33667  -106934  -1480582  -2247091  -3051083  -3285955  -3330653  -3337157  -3178200  -2704421  -1898388  -1734882  -2341909  -2845653  -3264927  -3749066  -3775314  -3795809  -4001198  -3918455  -3964182  -4429521  -4536570  -4758636  -4847190  -5454008  -5544991  -4925620  -3982884  -3367209  -2085537  -1203512  -954673  -485524  -58955  -288026  -866802  -1710628  -2885064  -2000170  -1472667  -1982264  -2442364  -3094099  -3123818  -3143182  -3083694  -3042245  -3002248  -3098901  -3046736  -2940496  -2825711  -2771843  -2982769  -2972347  -2800591  -3054802  -2912124  -2887664  -2842512  -2878355  -2768782  -2432744  -2545074  -2995955  -2976752  -3323612  -3123182  -3099248  -2910074  -3055082  -2847860  -3057099  -2784045  -3129091  -3342512  -3409391  -3263529  -3256785  -2939282  -2796570  -3089603  -2823873  -2164653  -1653430  -1980927  -2298405  -3159488  -3480318  -3448851  -3500669  -3629209  -2936736  -2787579  -3137909  -3314686  -3232917  -2730091  -2371240  -2422579  -2378936  -2010248  -1834835  -1873609  -1842983  -1518306  -985836  -886083  -625488  -2236336  -2684562  -2534339  -2377291  -2214000  -2176645  -2710576  -2449388  -2195595  -2215222  -2185570  -2559008  -2739879  -2427579  -2309355  -2206960  -2179182  -1879165  -1039899  -1658355  -979091  -375081  -403455  -766264  -1734657  -3089314  -4116529  -4743253  -4917545  -6588421  -8779455  -8103612  -6960818  -6324394  -5984364  -5761165  -5679758  -5550347  -5544017  -5530455  -5474091  -5436380  -5417879  -5373463  -5288727  -5336010  -5208446  -5116479  -5022980  -4848107  -4813314  -4605051  -4985223  -5203893  -5123202  -5142066  -5168479  -5248586  -5271636  -5146793  -5229606  -5166777  -4965058  -5083818  -5181050  -5080612  -5117838  -5075306  -5209876  -5315172  -5328521  -5208818  -5096101  -5090802  -4902463  -4999030  -5030926  -5068281  -4917717  -5041405  -5119240  -5113030  -4997008  -4979140  -4968960  -4988579  -4945041  -4806162  -4803116  -4870744  -4973444  -4928355  -5031050  -5117980  -4966810  -5004289  -4635000  -4781281  -5017157  -4663838  -4670331  -4902942  -4966505  -4974149  -4917669  -4962232  -4928719  -4824289  -4793242  -4847264  -4889421  -4961323  -4901190  -4691545  -4499545  -4501198  -4427372  -4583192  -4513603  -4519107  -4434192  -4551339  -4523083  -4546960  -4394702  -4173124  -4283071  -4366050  -4515653  -4670929  -4733430  -4798521  -4733848  -4704388  -4664769  -4749788  -4640050  -4740570  -4773929  -4685785  -4739893  -4733727  -4685165  -4723769  -4013394  -3760744  -4658397  -4523990  -4505686  -4557810  -4478949  -4389405  -4513058  -4366505  -4559901  -4307066  -4772535  -4597587  -4488661  -4797172  -4655215  -4361826  -4302242  -4305504  -4342653  -4266727  -4300983  -4251165  -4420253  -4217240  -3338116  -2806303  -3407264  -3907231  -3473717  -3376264  -2454942  -3085667  -3453190  -3800107  -4039929  -3681818  -4053446  -3798273  -4274347  -4380702  -4446192  -4380570  -4455455  -4524212  -4466521  -4367554  -4385343  -4417033  -4041653  -4106657  -4420058  -4414455  -4429152 
 999000  999000  999000  999000  999000  999000  999000  999000  999000  999000  999000  999000  999000  999000  999000  999000  999000  999000  999000  999000  999000  999000  999000  999000  999000  999000  999000  999000  999000  999000  999000  999000  999000  999000  999000  999000  999000  999000  999000  999000  999000  999000  999000  999000  999000  999000  999000  999000  999000  999000  999000  999000  999000  999000  999000  999000  999000  999000  999000  999000  999000  999000  999000  999000  999000  999000  999000  999000  999000  999000  999000  999000  999000  999000  999000  999000  999000  999000  999000  999000  999000  999000  999000  999000  999000  999000  999000  999000  999000  999000  999000  999000  999000  999000  999000  999000  999000  999000  999000  999000  999000  -4556  -4000  -5419  -6183  -13424  -22227  -23373  -26467  -31155  -37691  -45078  -42482  -43709  -24568  -20105  -33945  -144344  -226864  -171936  -221856  -350591  -400800  -528278  -597982  -614500  -519089  -341582  -276782  -244322  -234345  -319136  -146614  -134836  -310909  -248511  -468236  -1100145  -1518333  -1786182  -1965464  -2049289  -2105927  -2320018  -2704556  -2845918  -2896173  -2920611  -3033600  -3086327  -3145644  -2864091  -3008955  -3079922  -3013673  -2893509  -2737411  -2394545  -2524673  -2869956  -2990682  -2869218  -2620267  -2360791  -2644491  -2785844  -2775791  -2815045  -2656544  -1984827  -133713  -37567  -65218  -44804  -188600  -1559455  -2489064  -2104633  -1485118  -848736  -668329  -1065291  -1367091  -2213567  -3106173  -3268091  -3154433  -3437082  -3436618  -3447378  -3545291  -3452355  -3624456  -3591573  -3554791  -3434900  -3603564  -3496091  -2993620  -628243  -49527  -40210  -32673  -741600  -2453910  -2899609  -3311991  -3372810  -3441545  -2692136  -2284810  -2182518  -1843582  -1549230  -2008200  -3035927  -3799810  -3927500  -3909173  -3861750  -3949664  -3960600  -4152070  -4443855  -4504491  -4882870  -5346118  -6067745  -5259540  -4048073  -2801736  -1989620  -1275491  -957718  -944980  -492692  -221773  -504050  -1159905  -1771291  -2367890  -1692918  -2092509  -2100850  -2764245  -3168482  -3187050  -3176582  -3183464  -3107290  -3162327  -3100909  -3055140  -3047873  -3042000  -2843173  -2788236  -3009436  -2891510  -3012273  -3002800  -2875560  -2960418  -3019455  -3021670  -2970645  -2413291  -2582710  -2781282  -3235800  -3167360  -3245918  -3150936  -2789990  -3063145  -3026909  -3098060  -3325382  -2865436  -3040350  -3259155  -3251373  -3192250  -3229527  -3045191  -3125060  -2964673  -1761073  -1237140  -2174627  -2605955  -3482320  -3685000  -3033409  -2860920  -3321527  -2905509  -2606340  -2771864  -2940036  -2861270  -2640755  -2669673  -2457320  -2202082  -1960155  -1895350  -1848336  -1698018  -1127090  -790682  -885636  -2105560  -2565973  -2622409  -2347440  -2248591  -2375727  -2511956  -2396191  -2261773  -2209378  -2321227  -2630436  -2601644  -2640227  -2251673  -2129811  -2056645  -1925373  -1353022  -1584564  -1650018  -929667  -435255  -373139  -1083556  -2273273  -3658373  -4650111  -4610927  -5576318  -8128533  -8549855  -7330209  -6455467  -6009027  -5784200  -5624244  -5454227  -5462973  -5451189  -5454400  -5388018  -5415189  -5334073  -5192118  -5160678  -5049409  -4130218  -3978178  -4253827  -3774127  -2520789  -4596745  -5133436  -5184144  -5192000  -5082927  -5021900  -5048073  -5103055  -5177300  -4884045  -2724818  -4947033  -5278200  -5223418  -5160278  -5133582  -5169018  -5302011  -5289336  -5223000  -5114400  -5151227  -5100409  -4944233  -5179755  -5128445  -5112756  -5074355  -5058145  -4986200  -4886864  -4988591  -4753189  -5011300  -4963791  -4891089  -4915118  -4860991  -4925667  -4915682  -4948509  -4885267  -4753755  -4903873  -4941689  -4914982  -4877955  -4865289  -4932727  -4802209  -4898867  -4991909  -4846000  -4956033  -4914891  -4901855  -4777889  -4674255  -4730300  -4902011  -4906818  -4359209  -2723628  -3165165  -4391327  -4624089  -4648227  -4630773  -4594189  -4638209  -4369618  -4639544  -4531427  -4600927  -4599922  -4554973  -4609145  -4749833  -4780191  -4792518  -4862478  -4819609  -4741500  -4757256  -4582245  -4621673  -4775956  -4505918  -4290664  -4705622  -4695036  -4781300  -4436633  -4187227  -4748882  -4583989  -4558173  -4518855  -4554622  -4526836  -4566436  -4781767  -4889782  -4573082  -4778444  -4370855  -2984091  -2499556  -4080464  -3013645  -1915756  -2776427  -3413800  -3990200  -4246464  -4124664  -3981011  -3683455  -3753391  -4219022  -4045464  -4255373  -3066944  -2872082  -3336309  -3412822  -4112745  -4356164  -4393144  -4381164  -4400664  -4346900  -4411364  -4440391  -4384033  -4423873  -4499873  -4499733  -4452818  -4360518  -4562133  -4325500  -4245991  -4386078  -4398109  -4601645  -4552133 
 999000  999000  999000  999000  999000  999000  999000  999000  999000  999000  999000  999000  999000  999000  999000  999000  999000  999000  999000  999000  999000  999000  999000  999000  999000  999000  999000  999000  999000  999000  999000  999000  999000  999000  999000  999000  999000  999000  999000  999000  999000  999000  999000  999000  999000  999000  999000  999000  999000  999000  999000  999000  999000  999000  999000  999000  999000  999000  999000  999000  999000  999000  999000  999000  999000  999000  999000  999000  999000  999000  999000  999000  999000  999000  999000  999000  999000  999000  999000  999000  999000  999000  999000  999000  999000  999000  999000  999000  999000  999000  999000  999000  999000  999000  999000  999000  999000  999000  999000  999000  -4648  -4747  -8833  -14591  -19309  -21900  -24191  -38445  -42022  -9838  -31991  -44344  -43482  -25318  -15044  -48345  -111321  -328789  -399127  -293582  -384500  -456682  -475682  -540900  -630718  -652182  -516678  -337782  -264800  -229556  -204164  -465227  -394256  -192809  -34918  -112400  -733845  -1280373  -1637144  -1824436  -1996127  -2115111  -2055827  -2327927  -2699000  -2923773  -2975891  -2912756  -2993609  -3014382  -2936900  -3008055  -3161118  -3132056  -3005182  -2984718  -3028822  -2924845  -2471291  -2510111  -2797900  -2712600  -2234444  -2012473  -2527236  -2774944  -2812300  -2866973  -2896111  -2544864  -746524  -56933  -50236  -56836  -116702  -1429209  -2473782  -2292478  -1497109  -301845  -299312  -737191  -1041155  -2273033  -3262673  -3582855  -3454333  -3409618  -3350782  -3455378  -3518964  -3546945  -3633944  -3540336  -3437645  -3238280  -3474555  -3350382  -2095720  -131536  -46764  -36500  -57167  -1837157  -2800920  -3299127  -3448636  -3511700  -3379718  -1727664  -1354730  -2001500  -2557464  -2632210  -2479700  -3757245  -4202400  -4127218  -3875982  -4115790  -4261155  -4114855  -4243640  -4409991  -4539573  -5049710  -5721982  -5409227  -4299970  -3122127  -2247736  -1422150  -856618  -836855  -1024280  -847382  -716136  -761350  -842779  -2313900  -2615080  -1695409  -2147009  -2284110  -2935591  -3072064  -3095750  -3135973  -3132736  -3223470  -3284791  -3081145  -3067750  -3028182  -3027073  -2842000  -2695055  -2638055  -2786950  -2808782  -2801473  -2886740  -2948973  -2571855  -2404770  -2656182  -2737136  -2661950  -2827936  -3079291  -3178420  -3199718  -3302200  -2877810  -3027927  -3155345  -3158510  -2873264  -3179691  -3117200  -3264364  -3142745  -3019680  -3206336  -2906936  -2964990  -2853609  -1984345  -375589  -943337  -1603891  -2475660  -3306873  -3406982  -2699120  -2768609  -3151909  -2682010  -1628540  -1379242  -2847550  -2559082  -2731709  -2479480  -2134400  -1668964  -1551440  -1406627  -1006314  -451851  -368798  -1132609  -2127660  -2278264  -2339809  -1968460  -1920455  -2264018  -2335978  -2391755  -2292945  -2297011  -2594945  -2784218  -2511111  -2686636  -2336309  -2310000  -2056382  -1862073  -1547211  -1269927  -1711827  -1288200  -377264  -100972  -548713  -1742055  -3109955  -4839678  -4759891  -5156491  -7254811  -8880836  -7558782  -6562289  -5995555  -5620064  -5520933  -5424273  -5440918  -5428089  -5375327  -5305082  -5334111  -5241873  -5176236  -5004000  -4686591  -3894518  -2769800  -2394800  -3009618  -2556922  -4599718  -5092136  -5128200  -5171482  -5081200  -4996300  -4988682  -4979327  -5115211  -5209600  -4832209  -5471267  -5407718  -5319391  -5093633  -5090227  -5068409  -5202633  -5084973  -5010755  -5036967  -4432891  -4518536  -5194456  -5222618  -5241491  -5328911  -5194127  -5179545  -5166433  -4972218  -5079300  -5136889  -5093982  -5121691  -5193856  -5162191  -5035564  -5004233  -5011082  -4963691  -4679056  -4664200  -4951209  -4970222  -4934882  -5020191  -4939778  -5058036  -4916455  -4720300  -4821891  -4799227  -4867200  -4848736  -4813691  -4692567  -4376155  -4516564  -4680089  -3854573  -3901291  -1966090  -3071627  -4499582  -4735489  -4641791  -4705009  -4657044  -4630745  -3988664  -4767400  -4483327  -4415391  -4412622  -4478127  -4728055  -4729867  -4757073  -4716845  -4758678  -4781000  -4791736  -4689211  -4546300  -4518082  -4731589  -4724200  -4691191  -4861578  -4815936  -4989400  -4750678  -4707891  -4590509  -4563167  -4567109  -4596545  -4665678  -4535645  -4578855  -4696711  -4870718  -4580873  -4587256  -3986109  -1684018  -899400  -3182064  -3346991  -1915011  -2628000  -3631982  -3731267  -3879445  -4116400  -4173778  -3891991  -3774518  -4081600  -4058973  -4223255  -4163422  -3695964  -3419936  -3562089  -4005345  -3891891  -4129678  -4286018  -4315845  -4329533  -4276536  -4423255  -4386867  -4468145  -4426936  -4491156  -4418227  -4398555  -4521578  -4286582  -4384527  -4364311  -4464636  -4582927  -4492667 
 999000  999000  999000  999000  999000  999000  999000  999000  999000  999000  999000  999000  999000  999000  999000  999000  999000  999000  999000  999000  999000  999000  999000  999000  999000  999000  999000  999000  999000  999000  999000  999000  999000  999000  999000  999000  999000  999000  999000  999000  999000  999000  999000  999000  999000  999000  999000  999000  999000  999000  999000  999000  999000  999000  999000  999000  999000  999000  999000  999000  999000  999000  999000  999000  999000  999000  999000  999000  999000  999000  999000  999000  999000  999000  999000  999000  999000  999000  999000  999000  999000  999000  999000  999000  999000  999000  999000  999000  999000  999000  999000  999000  999000  999000  999000  999000  999000  999000  -4714  -5064  -10042  -21405  -27091  -28942  -29942  -27131  -42256  -49240  -41343  -36833  -20331  -31156  -46587  -86504  -230909  -331876  -400264  -453202  -523950  -510289  -590040  -758165  -762727  -771929  -873132  -926645  -698798  -816835  -761248  -682273  -797107  -814207  -604303  -225256  -40283  -358667  -1163496  -1638017  -1890131  -1807025  -2065851  -2132848  -2150802  -2357595  -2717242  -2929661  -2922132  -2932788  -2922645  -2923066  -2697697  -2886207  -3101702  -3093263  -2944413  -2381421  -2133677  -2328273  -2251397  -2313899  -2546769  -2109215  -1560263  -1965248  -2726140  -2753616  -2653017  -2926215  -3224636  -3125545  -2003248  -718031  -490554  -185658  -738266  -2475463  -2711686  -2362444  -2091157  -1275240  -943556  -1586669  -2382074  -2876525  -3729207  -3839835  -3563263  -3269512  -3337174  -3416535  -3519322  -3531785  -3279970  -2722529  -2648298  -2799473  -3178826  -3139711  -1287436  -382843  -182661  -83273  -1165124  -3151694  -2444073  -3207868  -3585364  -3364927  -2528033  -2312620  -2494936  -2467322  -2992041  -3366436  -3969661  -4233223  -4099764  -3902562  -4368215  -4486627  -4563215  -4475992  -4319282  -4397231  -4595364  -5108436  -5631926  -5117405  -4241736  -3278645  -2172058  -1116736  -954182  -1021521  -886505  -612580  -664330  -1206755  -2147645  -2688843  -2221618  -1886628  -2149686  -2472427  -2582438  -2635116  -2889300  -2815694  -2882959  -3205236  -3135818  -3067744  -3027318  -3080512  -3093529  -3074983  -2923868  -3051372  -2788945  -2799694  -2977000  -2857600  -2983934  -2947702  -2976782  -2785256  -2859157  -2968273  -2996545  -3105570  -3102173  -3065942  -2940719  -3000891  -2781182  -2554760  -3708955  -2836612  -2997678  -2875027  -2927322  -2493364  -2227682  -2456785  -2705198  -2715355  -2503860  -2026364  -841486  -140299  -95211  -581689  -2192504  -3351983  -2698982  -2435240  -2891570  -3394327  -2783653  -2622314  -2605782  -1159831  -2119570  -2577245  -2253942  -1270736  -728255  -505992  -365190  -120735  -193562  -968083  -2110145  -2407595  -2375860  -1761936  -1753777  -2355521  -2404848  -2214983  -2340678  -2255596  -2637364  -2617190  -2757727  -2535678  -2508413  -2331737  -2197124  -1615603  -1488162  -839311  -1217909  -1567202  -914331  -118636  -342874  -1531917  -3030645  -4746212  -4698686  -4858025  -6613444  -8800273  -7769421  -6663152  -5763289  -5201926  -5085576  -5272818  -5471488  -5425667  -5370983  -5290529  -5258081  -5193041  -5121331  -5034141  -4822587  -4089174  -1902417  -865420  -3350694  -3469747  -3678215  -4864388  -4864556  -4781752  -4838992  -4745586  -4782264  -4865909  -5271758  -5558719  -5876661  -5828020  -5592488  -5558570  -5391596  -5191231  -5058810  -4942242  -4916306  -4996950  -5003414  -5042388  -5131372  -5295485  -5155240  -5254818  -5282535  -5209909  -5115661  -5023980  -5014669  -5114116  -5143616  -5052240  -5147421  -5286495  -5249322  -5125587  -5172000  -5102653  -4657248  -4805919  -4689893  -4836785  -4897626  -4971843  -5153512  -5221929  -5160405  -5066694  -4988657  -4882215  -4823554  -4832566  -4881661  -4771661  -4367525  -2733775  -3026364  -4639828  -4408661  -4287628  -3994081  -4353645  -4610661  -4723687  -4727711  -4847975  -4274768  -4194116  -4472504  -4170737  -4530397  -4509488  -4650313  -4494463  -4184273  -4358414  -4649182  -4567116  -4668980  -4512132  -4696926  -4594232  -4583851  -4564628  -4697222  -4644455  -4679339  -4750374  -4739107  -3600314  -4039000  -4586050  -4535661  -4547980  -4575033  -4638405  -4703929  -4631207  -4774471  -4767434  -4741562  -4370777  -3144424  -3445008  -2931645  -2706061  -3422033  -3492331  -4112727  -4379157  -4399702  -4407657  -4395488  -4138000  -4097283  -4015025  -3524041  -3640374  -3901190  -4131636  -4280192  -3668917  -3822471  -3876202  -4127521  -4213364  -4327747  -4290802  -4418752  -4353121  -4371446  -4398140  -4435040  -4362264  -4396793  -4433333  -4384116  -4411273  -4307889  -4458950  -4410570  -4364000  -4457868  -4530818  -4525081 
 999000  999000  999000  999000  999000  999000  999000  999000  999000  999000  999000  999000  999000  999000  999000  999000  999000  999000  999000  999000  999000  999000  999000  999000  999000  999000  999000  999000  999000  999000  999000  999000  999000  999000  999000  999000  999000  999000  999000  999000  999000  999000  999000  999000  999000  999000  999000  999000  999000  999000  999000  999000  999000  999000  999000  999000  999000  999000  999000  999000  999000  999000  999000  999000  999000  999000  999000  999000  999000  999000  999000  999000  999000  999000  999000  999000  999000  999000  999000  999000  999000  999000  999000  999000  999000  999000  999000  999000  999000  999000  999000  999000  999000  999000  999000  999000  999000  999000  -4977  -5108  -22278  -31255  -35833  -39327  -42936  -46244  -35318  -42891  -43444  -59236  -123218  -187144  -285027  -361955  -447844  -517682  -596536  -596111  -624318  -659664  -795611  -952455  -1050800  -1123322  -1169545  -1237591  -1440167  -1603873  -1667445  -1436811  -1295309  -1165000  -916867  -897727  -553609  -1102689  -1725455  -1944545  -2094811  -1807600  -2141145  -2222767  -2250536  -2556009  -2863644  -2869891  -2842200  -2796600  -2738418  -2561127  -2475544  -2770691  -2979564  -2920478  -2377100  -1715264  -2119433  -2252973  -2275491  -2227678  -1995282  -1755136  -1763544  -2666836  -2825936  -2771767  -2817518  -3276136  -3548656  -3508409  -2479909  -1469878  -1293927  -989418  -2541378  -3230791  -3218082  -3155267  -3068282  -2607973  -2059144  -2038173  -2394273  -2947233  -3446509  -3703209  -3349133  -3172818  -3117627  -3387567  -3316891  -3186264  -2826033  -2068109  -2364864  -2719360  -3239918  -2550736  -1177550  -677436  -440306  -456734  -2410555  -3051455  -3632860  -3671145  -3469427  -2495080  -1864755  -2229000  -2802590  -2201991  -2939391  -3442810  -4026173  -4075691  -4042760  -3188855  -4464618  -4425510  -4545600  -4502445  -4435850  -4425500  -4592873  -5275200  -5571673  -4789745  -4340610  -3220645  -1231809  -891580  -955127  -962773  -322191  999000  -422421  -1222130  -2362618  -2271118  -1918220  -2279791  -2349200  -2756050  -2662264  -2071773  -2700250  -3179018  -3235627  -3424510  -3262991  -3124873  -3188350  -3138700  -3169345  -2874536  -2880745  -3106509  -2866860  -2861373  -2943282  -2855280  -2925964  -2955891  -2889360  -2918873  -2996736  -2937400  -2986264  -3099455  -3162800  -2908391  -2922755  -3125090  -2772018  -2332073  -2636680  -3543164  -2398827  -2423760  -2665882  -2794027  -2770940  -2039482  -2194345  -2193120  -2136155  -2142109  -2103090  -1556945  -814400  -58782  -870755  -2332764  -2661710  -2110345  -2442382  -3278940  -3458782  -2997336  -2635640  -1228020  -2148782  -2493370  -1938155  -826382  -337194  -451962  -262243  -346610  -353955  -1229718  -2195060  -2574582  -2442591  -1931430  -1852518  -2310018  -2404489  -2300945  -2433400  -2545189  -2273709  -2357864  -2573744  -2766491  -2462982  -2320122  -2248818  -1833964  -1496656  -1064100  -902990  -1404389  -1229518  -273769  -192388  -1232445  -2605100  -4292744  -4782545  -3976018  -5195733  -7435891  -7866227  -6392633  -5215473  -4237527  -4430322  -5106636  -5419482  -5408344  -5355036  -5311918  -5229133  -5154327  -5084245  -4980211  -4854064  -4574391  -4115867  -3371600  -3959045  -3445978  -3652536  -4511145  -4707867  -4715136  -4740055  -4766811  -5084718  -5055136  -5390233  -5555436  -5732455  -5572500  -5178573  -5226255  -5461089  -5473355  -5284818  -5190633  -5173891  -5202873  -5231544  -5278009  -5301809  -5419611  -5492418  -5530155  -5443456  -5235373  -5213364  -5044222  -5227082  -5210364  -5206989  -5183327  -5156873  -5160433  -5240718  -5233900  -5137478  -4986009  -4789664  -4761611  -4734400  -4855800  -5149344  -5013136  -5184736  -5141200  -5105673  -5049000  -4838244  -4878064  -4847291  -4896444  -4740227  -4423909  -3937900  -1485690  -2554361  -4429700  -4827800  -4784073  -4737622  -4723000  -4695982  -4654300  -4926509  -4532182  -4130922  -4497364  -4492582  -4569856  -4678555  -4626291  -4592678  -4705991  -4695409  -4711322  -4692945  -4703818  -4651289  -4675491  -4658973  -4595689  -4702627  -4707509  -4743700  -4711936  -4750991  -4715567  -4712436  -4240309  -4328111  -4562418  -4610845  -4518811  -4419191  -4387345  -4649822  -4692509  -4751991  -4418856  -3284727  -2863018  -2804233  -3270891  -3685073  -3787822  -3814573  -3428627  -3340656  -3833900  -4290991  -4311200  -4039355  -3809045  -3843600  -3879236  -3854673  -3882056  -3701100  -3668900  -4030833  -3634591  -4095391  -4157478  -4245255  -4269445  -4283411  -4285882  -4309173  -4314356  -4404164  -4261391  -4408156  -4315400  -4391764  -4301544  -4379545  -4390691  -4372733  -4466927  -4398891  -4408167  -4385309  -4543873  -4548011 
 999000  999000  999000  999000  999000  999000  999000  999000  999000  999000  999000  999000  999000  999000  999000  999000  999000  999000  999000  999000  999000  999000  999000  999000  999000  999000  999000  999000  999000  999000  999000  999000  999000  999000  999000  999000  999000  999000  999000  999000  999000  999000  999000  999000  999000  999000  999000  999000  999000  999000  999000  999000  999000  999000  999000  999000  999000  999000  999000  999000  999000  999000  999000  999000  999000  999000  999000  999000  999000  999000  999000  999000  999000  999000  999000  999000  999000  999000  999000  999000  999000  999000  999000  999000  999000  999000  999000  999000  999000  999000  999000  999000  999000  999000  999000  999000  999000  999000  -4894  -6068  -28289  -38064  -41733  -44964  -44355  -36122  -37845  -45936  -115967  -287209  -417091  -462100  -580055  -660255  -672656  -745745  -831536  -855489  -925318  -949518  -1042444  -1163009  -1211618  -1331356  -1424055  -1538000  -1572433  -1573645  -1617255  -1592478  -1672064  -1250064  -1302022  -1552400  -1510655  -1841533  -2056309  -2131300  -2206056  -2112991  -2232482  -2356933  -2371509  -2733864  -2862978  -2630973  -2674618  -2518267  -2500264  -2447309  -2191122  -2020764  -2578873  -2622422  -2122573  -1974055  -1989867  -2111736  -2265909  -2108733  -2218364  -2655173  -2881889  -3007109  -2967200  -2858122  -3323927  -3542500  -3576067  -3515600  -2858473  -1676033  -1397591  -2254818  -3652278  -3863827  -3969873  -3851833  -3545236  -3327564  -3128844  -3023582  -2848182  -3020756  -3075745  -2770991  -2871311  -2949318  -2913345  -3084711  -2987645  -2759100  -2630644  -2536900  -2597409  -2890150  -3149609  -1885009  -627170  -389236  -530691  -1466190  -2661718  -3206909  -3681490  -3451245  -2409882  -2031310  -2216909  -2925018  -2974030  -2310100  -2980273  -3036230  -3555073  -3510255  -4095240  -4306482  -4355755  -4290690  -4399473  -4472509  -4563160  -4535473  -4866164  -5816380  -5384791  -4933518  -4603690  -2704527  -1008855  -724180  -996609  -1007091  -284817  -97524  -482398  -1252590  -2087900  -1865773  -2168980  -2467491  -2691382  -2744960  -2591736  -2418755  -2563040  -2981227  -3164845  -3099440  -3137227  -3007582  -3143380  -3004791  -3014536  -2713264  -2867682  -3112573  -2816720  -2948036  -2978455  -2871590  -2953909  -3050382  -2832740  -2802155  -3004255  -2818840  -2900573  -3088655  -3146720  -2655791  -3129245  -2746340  -2433245  -2613000  -2490360  -3324645  -2216973  -3031730  -2993791  -2893718  -2641830  -2234618  -2149773  -1717770  -1679545  -1604936  -2093170  -2140100  -1977200  -386406  -1286600  -1927955  -2384210  -2407455  -2372145  -3060520  -2993936  -1005543  -1288970  -2014027  -1892327  -1348806  -1751173  -952444  -824570  -908418  -330066  -205344  -223127  -1289391  -2299110  -2685855  -2466055  -1918400  -1856091  -2283855  -2412122  -2365436  -2449755  -2463589  -2433227  -2401509  -2333822  -2692500  -2661873  -2422911  -2310291  -1962027  -1787411  -1581182  -1205691  -1174311  -1296864  -817768  -39333  -883000  -2250882  -3988511  -4509118  -3694445  -4262400  -5858573  -6798236  -5893922  -3697791  -2178536  -3577567  -5129264  -5316536  -5296944  -5240991  -5330400  -5292644  -5112891  -5025482  -4984556  -4880082  -4959418  -5095311  -4623373  -4247109  -4226233  -3944000  -3864127  -4676111  -4842991  -4906064  -4777744  -4977918  -5182591  -5361233  -5559936  -5653391  -5476944  -4890809  -4985118  -5252767  -5348355  -5276273  -5233600  -5207900  -5180427  -5295467  -5364582  -5310218  -5338100  -5434345  -5394291  -5341367  -5167009  -5210627  -5080878  -4891082  -4988373  -5183333  -5189245  -5286645  -5299900  -5250845  -5231682  -5115167  -5010436  -5064373  -4757789  -4670518  -4826773  -4953344  -4935464  -5075209  -4977011  -5135636  -5064955  -5012622  -4827845  -4856927  -4837133  -4765836  -4460636  -4290222  -3815964  -3927564  -4489956  -4890173  -4950155  -4928067  -4750100  -4717427  -4852033  -4957945  -4359355  -4325567  -4563891  -4536927  -4763122  -4703409  -4643345  -4659978  -4725473  -4762645  -4770856  -4748118  -4783800  -4838478  -4816700  -4810418  -4730300  -4725636  -4744491  -4524744  -4661009  -4768555  -4712944  -4746264  -4774191  -4626233  -4589691  -4648155  -4552100  -4245009  -4487809  -4673311  -3914136  -3854927  -2485722  -1949682  -2358882  -3811000  -4458182  -4382418  -4192789  -4232545  -4060991  -4047933  -3754764  -3669073  -3465478  -3355127  -3649036  -3920622  -4033709  -4035327  -4064056  -3791818  -3711018  -3893956  -3725909  -4010536  -4025956  -4256636  -4258845  -4240633  -4286882  -4305400  -4328278  -4406064  -3837700  -4289400  -4413445  -4395600  -4211644  -4410791  -4351982  -4350822  -4442636  -4319736  -4412289  -4414473  -4479609  -4429689 
 999000  999000  999000  999000  999000  999000  999000  999000  999000  999000  999000  999000  999000  999000  999000  999000  999000  999000  999000  999000  999000  999000  999000  999000  999000  999000  999000  999000  999000  999000  999000  999000  999000  999000  999000  999000  999000  999000  999000  999000  999000  999000  999000  999000  999000  999000  999000  999000  999000  999000  999000  999000  999000  999000  999000  999000  999000  999000  999000  999000  999000  999000  999000  999000  999000  999000  999000  999000  999000  999000  999000  999000  999000  999000  999000  999000  999000  999000  999000  999000  999000  999000  999000  999000  999000  999000  999000  999000  999000  999000  999000  999000  999000  999000  999000  999000  999000  999000  -8689  -21882  -31455  -44570  -45242  -46033  -47397  -37899  -57198  -153587  -519475  -734579  -804240  -868909  -979992  -1025744  -1031121  -1067256  -1105545  -1099374  -1132612  -1147917  -1224717  -1270347  -1289455  -1367283  -1403132  -1509843  -1548657  -1568603  -1640149  -1660131  -1820876  -1798306  -1749263  -1757529  -1983322  -2189747  -2255215  -2297545  -2278990  -2256149  -2346157  -2299172  -2541149  -2535884  -2807081  -2637215  -2409537  -2123162  -2164190  -2300314  -2100960  -1616099  -1312479  -1600030  -2261802  -2105099  -2008909  -2176669  -2111033  -2345293  -2655430  -2826281  -2902040  -3052463  -2984562  -3078051  -3515388  -3563777  -3527293  -3469678  -3291256  -2104485  -1211645  -2164909  -3663323  -4009736  -4010777  -3858081  -3573372  -3512008  -3486293  -3354959  -3206413  -3154354  -3077471  -2898306  -2857152  -2848901  -2782132  -2883303  -2944860  -2635496  -2291838  -2496818  -2664504  -3069227  -2558777  -268107  -22064  -55686  -1043488  -2189373  -3240306  -3704223  -3837909  -3101124  -1035871  -1645257  -3419479  -3566140  -3508873  -3475810  -3580744  -3501691  -3518562  -3825231  -4395982  -4440421  -4447107  -4353818  -4306793  -4358000  -4215718  -4268339  -4994248  -6041236  -5169322  -4727884  -4320445  -2642107  -1008860  -309245  -986835  -1216479  -871927  -692802  -926884  -1375673  -1360116  -1664091  -2108255  -2469058  -2584025  -2675482  -2787686  -2865140  -2842555  -2880264  -2925645  -2930300  -3022405  -3079669  -3032927  -2908686  -2987851  -2865711  -3029041  -3034074  -2849473  -2928240  -2898240  -2920400  -2914488  -2978529  -2733036  -2721570  -2979777  -2815773  -2843545  -3048653  -3067327  -3054273  -3266182  -1939927  -1943256  -2276182  -2288900  -2900314  -2316479  -2519827  -2416124  -2578331  -2865027  -2615686  -1992033  -1602100  -724426  -1122231  -695155  -1783169  -2122306  -1731173  -2003479  -2157521  -2210636  -2061884  -2153413  -2784582  -2835248  -1206315  -1257162  -2319917  -2255041  -1742409  -1605273  -1335917  -1119591  -1043975  -791669  -325079  -396190  -1228488  -2288645  -2549950  -2360231  -1795327  -2339727  -2190579  -2301333  -2370207  -2468281  -2534889  -2423182  -2613983  -2894343  -2270744  -2604281  -2450313  -2387496  -2204091  -1984303  -1823124  -1596380  -1150212  -1004397  -1485595  -1334398  -1589983  -2424008  -3705687  -4504347  -4356967  -4128253  -5576165  -7559281  -6709020  -3903256  -2174397  -3921737  -5396868  -5349430  -5194414  -5005273  -5170521  -5186081  -5037355  -4958810  -4903970  -4834959  -5157256  -5254677  -4660810  -4409025  -4458343  -3651702  -2843595  -3981788  -4833711  -4984744  -4915606  -4914545  -5258645  -5307576  -5341314  -5479273  -5468646  -5457521  -5432322  -5497919  -5415140  -5300736  -5293566  -5255934  -5252686  -5265364  -5286686  -5169455  -5186020  -5215306  -5211240  -5184212  -5130397  -4836959  -4441707  -4832413  -4777174  -5087949  -5086000  -5167760  -5123677  -5162066  -5116124  -5059960  -4971339  -4876273  -4741394  -4723322  -4773380  -4855697  -4874182  -4858298  -4940586  -4993554  -4935901  -4918101  -4841826  -4903769  -4941525  -4793860  -4710256  -4765667  -4818661  -4895397  -4693939  -4970182  -4999050  -5004899  -4894256  -4949876  -4459788  -4604645  -3941950  -4174343  -4449488  -4512595  -4685848  -4785694  -4799446  -4645485  -4765504  -4797372  -4754677  -4645058  -4767992  -4827576  -4784802  -4781562  -4705717  -4723884  -4796116  -4760444  -4710248  -4700810  -4605253  -4519876  -3482942  -3359586  -4462372  -4686140  -4475020  -4363942  -4345793  -4261889  -4380686  -3552025  -2067141  -3177959  -4064686  -4282616  -3931231  -3968355  -4052242  -4251281  -4030223  -4089283  -4188116  -4262421  -4182657  -4030471  -4074099  -4026091  -3961562  -3913455  -3783586  -3668198  -3854364  -4150677  -4103992  -3859860  -3809596  -4099901  -4171289  -4202707  -4223165  -4285157  -4335717  -4360645  -4379893  -4359172  -4407488  -4395157  -4317596  -4410901  -4338579  -4374758  -4398000  -4299355  -4351939  -4429240  -4365818  -4397192 
 999000  999000  999000  999000  999000  999000  999000  999000  999000  999000  999000  999000  999000  999000  999000  999000  999000  999000  999000  999000  999000  999000  999000  999000  999000  999000  999000  999000  999000  999000  999000  999000  999000  999000  999000  999000  999000  999000  999000  999000  999000  999000  999000  999000  999000  999000  999000  999000  999000  999000  999000  999000  999000  999000  999000  999000  999000  999000  999000  999000  999000  999000  999000  999000  999000  999000  999000  999000  999000  999000  999000  999000  999000  999000  999000  999000  999000  999000  999000  999000  999000  999000  999000  999000  999000  999000  999000  999000  999000  999000  999000  999000  999000  999000  999000  999000  999000  -3800  -16611  -24244  -19664  -23427  -49678  -48364  -66145  -163822  -377736  -719636  -879178  -899336  -942955  -1026367  -1106709  -1149000  -1169156  -1171300  -1148891  -1155944  -1148400  -1163927  -1177922  -1197273  -1305182  -1367256  -1375282  -1546364  -1537456  -1579045  -1661636  -1727922  -1728391  -1827245  -1891000  -2037282  -2131782  -2294500  -2301082  -2378109  -2298233  -2423627  -2554300  -2606056  -2685791  -2625527  -2824956  -2624245  -2138618  -1936022  -2113927  -2117091  -1997300  -1650636  -813118  -1756167  -1911191  -2008927  -2355689  -2521582  -2558909  -2567889  -2802191  -2757736  -2734467  -2820591  -2874373  -3293778  -3508591  -3583727  -3581033  -3542482  -3473873  -2629567  -1501318  -1301600  -3470622  -4229236  -4188282  -4101189  -3947436  -3838718  -3729367  -3510200  -2923373  -2926133  -3092209  -3193436  -2986178  -2900173  -2899109  -3058556  -3066627  -2827873  -2578744  -2489564  -2667655  -3355380  -1937100  -647527  -10050  -251509  -907776  -2359860  -3687964  -3914036  -3867240  -3210082  -2887955  -2843010  -3785609  -3805909  -3795180  -4072727  -3862609  -3978580  -3987455  -4531027  -4563190  -4454609  -4419136  -4453830  -4471073  -4327255  -4344340  -4525645  -5198291  -6109070  -4593255  -4043536  -4166810  -2912018  -1201845  -434340  -1052464  -1232291  -1111600  -1079773  -1207336  -1466570  -1844709  -1634427  -1843310  -2213018  -2266973  -2426170  -2726973  -2859091  -2961800  -3035627  -3032500  -3042830  -2991900  -3082745  -3069990  -2898091  -2920564  -2894982  -3063600  -3076555  -2882570  -2893273  -2865318  -2953280  -3017027  -3025045  -2789640  -2780864  -2897218  -2846460  -2954400  -2961273  -2980710  -2978773  -2935491  -2450540  -2172455  -2490655  -2655910  -3722227  -2729509  -2935140  -2770273  -2876991  -2744190  -2061573  -1958418  -1711680  -1593745  -1136529  -61129  -443121  -1589991  -1711220  -1836391  -1743782  -2150860  -2229518  -2252136  -2721870  -3094464  -2661736  -2442850  -2738573  -2775964  -2461320  -1136556  -761464  -978820  -867394  -546185  -163424  -121636  -725582  -2200550  -2545273  -2388355  -2134690  -2531545  -2088409  -2279544  -2370973  -2472355  -2570322  -2401264  -2534518  -2477644  -2560291  -2467218  -2429378  -2285745  -2236173  -2155900  -1536591  -1318609  -1001444  -710491  -1202927  -1786400  -2220136  -2726727  -3208822  -3537455  -3616700  -4647822  -4892900  -7312800  -7944089  -6262155  -5160173  -5414611  -5542427  -5283791  -5145611  -5055255  -5097082  -5043689  -4970482  -4930264  -4809722  -4822145  -5006164  -5183900  -4599855  -4411100  -4533156  -3912236  -1735527  -2231356  -4650191  -4892009  -3499533  -2979750  -5139891  -5383544  -5402973  -5433364  -5432822  -5477736  -5421036  -5481611  -5473736  -5377318  -5369211  -5378982  -5404373  -5383733  -5299591  -5268136  -5161744  -5211227  -5288955  -5190378  -4976636  -3610809  -2984878  -4666345  -4887673  -4445078  -4587309  -4942755  -5056267  -4952591  -4559218  -4634244  -4859345  -4895618  -4846644  -4731473  -4754345  -4909067  -4640900  -4819082  -4921300  -5033109  -5025564  -4778578  -4850482  -4903318  -4791978  -4757400  -4787482  -4973100  -4903482  -5088473  -4903589  -5010773  -4951909  -5010478  -4988564  -4858655  -4637600  -4882364  -4376164  -4437967  -4486845  -4628309  -4611256  -4603245  -4536200  -4507300  -4586782  -4517691  -4612933  -4432891  -4643045  -4778867  -4725164  -4850018  -4795922  -4879555  -4989845  -4918211  -4904618  -4810573  -4543911  -4341573  -1603100  -1673300  -4228018  -4676164  -4427400  -3597809  -2309191  -2008300  -2668645  -3681536  -3835011  -3522755  -4021391  -3902989  -3656400  -3710227  -3733111  -3729227  -3856136  -3920311  -4062409  -4155482  -4175133  -4153373  -4188773  -4163744  -4012627  -3653555  -3187244  -3037473  -3203845  -3347744  -3674009  -3072364  -2109133  -3928691  -4031845  -4112200  -4147045  -4167145  -4299022  -4179436  -4318736  -4342233  -4407809  -4247673  -4209511  -4343491  -4272355  -4366156  -4316509  -4216900  -4332644  -4306218  -4326700  -4481833 
 999000  999000  999000  999000  999000  999000  999000  999000  999000  999000  999000  999000  999000  999000  999000  999000  999000  999000  999000  999000  999000  999000  999000  999000  999000  999000  999000  999000  999000  999000  999000  999000  999000  999000  999000  999000  999000  999000  999000  999000  999000  999000  999000  999000  999000  999000  999000  999000  999000  999000  999000  999000  999000  999000  999000  999000  999000  999000  999000  999000  999000  999000  999000  999000  999000  999000  999000  999000  999000  999000  999000  999000  999000  999000  999000  999000  999000  999000  999000  999000  999000  999000  999000  999000  999000  999000  999000  999000  999000  999000  999000  999000  999000  999000  999000  999000  -4757  -4868  -15291  -21300  -21109  -23418  -44089  -126082  -258282  -699089  -930318  -1020309  -1058844  -1093064  -1096300  -1059189  -1115518  -1135673  -1119678  -1105018  -1062945  -962078  -957973  -1059782  -1063056  -1028209  -1158845  -1279156  -1317427  -1439855  -1507522  -1619491  -1755609  -1660000  -1619709  -1642291  -1735678  -1879873  -2135182  -2112544  -2160791  -2267809  -2311533  -2465118  -2448700  -2529033  -2612145  -2760991  -2797633  -2731700  -2351755  -2042056  -1969945  -1833773  -2206611  -2253000  -1422982  -2172867  -1829300  -2230773  -2481933  -2074436  -2706945  -2822689  -2694445  -2608173  -2706644  -2782136  -3051936  -3359989  -3541955  -3586727  -3597322  -3596545  -3639336  -3126267  -2444855  -1803782  -3174267  -4270691  -4223764  -4244933  -4100391  -3996309  -3943911  -3911218  -3088891  -3027167  -3124936  -3082409  -2909111  -3019936  -2987500  -2974900  -3177145  -3573964  -3925456  -3346691  -2991755  -3514600  -2243609  -655573  -11750  -236845  -899082  -3030590  -3916100  -4024218  -3794880  -3348973  -3433991  -3643620  -3964545  -4063118  -4049680  -3758818  -4099709  -4417910  -4539709  -4540927  -4552370  -4332564  -4517018  -4691720  -4430464  -4488609  -4502280  -4405391  -5246791  -6003830  -3637491  -3510445  -3370140  -2378155  -1280991  -858410  -1008382  -1050791  -1145500  -1480664  -1584527  -1747220  -2115273  -1625709  -2157440  -2484236  -2455164  -2418090  -2666309  -2800400  -2903540  -3014245  -2918473  -3124630  -3141964  -3061209  -3001910  -2966464  -2857255  -2846836  -2945009  -3007218  -2951590  -2855336  -2885155  -2900930  -2878927  -2774409  -2963060  -2810818  -2689682  -2867790  -2923482  -2771282  -2917780  -2884627  -2570864  -2386670  -2453482  -2805727  -2812040  -3575018  -2699364  -2801580  -2699291  -2894591  -2471600  -2050091  -1370365  -1054961  -1041056  999000  999000  -183533  -552775  -607848  -871567  -1356373  -1865550  -1807555  -1308915  -2632720  -2711982  -1636400  -2025450  -2300936  -2051736  -1880610  -1413609  -988155  -896860  -522955  -218471  -72170  -112055  -824382  -2341060  -2481373  -2172600  -2434410  -2300500  -2227245  -2263867  -2413336  -2460864  -2497511  -2372555  -2343264  -2525733  -2758664  -2455945  -2470356  -2350282  -2217018  -2189778  -1440127  -1343064  -1124589  -875464  -695606  -1361944  -1563545  -1643736  -1995533  -2436036  -3158900  -4170722  -5188818  -6689464  -8403244  -7103945  -6166436  -5714800  -5521991  -5309255  -5258856  -5178145  -5137000  -4989722  -4915391  -4856400  -4699067  -4716609  -4802991  -5049022  -4762364  -4525445  -4598000  -4604927  -4305318  -4537878  -4771373  -4806664  -2878211  -1956482  -4919445  -5297267  -5405664  -5373618  -5394533  -5434882  -5468391  -5448267  -5262945  -5385291  -5415456  -5394991  -5360109  -5339222  -5359209  -5351927  -5238067  -5216827  -5261882  -5233733  -5056973  -4674809  -4318167  -3897673  -4594591  -4881300  -4961036  -4768636  -4815456  -4185945  -3033782  -3822278  -4618027  -4800755  -4764044  -4875382  -4786545  -4718611  -4719791  -4839091  -4864544  -4992209  -5008036  -4718833  -4827727  -4954673  -4857411  -4727736  -4839955  -5016844  -5045655  -5028927  -4989633  -4988555  -4929773  -4976500  -4941200  -4486964  -4865978  -4834536  -4336091  -4231733  -4472436  -4668782  -4400678  -4298918  -3775055  -4367478  -4423436  -4450055  -4606689  -4533427  -4551136  -4618556  -4734491  -4882236  -4922978  -4888082  -4965727  -4907578  -4916255  -4781055  -4779922  -4198645  -3311300  -3600633  -4432927  -4081245  -3446844  -3651800  -4073482  -4101522  -2623691  -2455664  -3989011  -4101364  -4301618  -4185411  -4183809  -4149727  -4139222  -4100436  -3925500  -3802556  -3918682  -3896564  -3800022  -3828618  -3734418  -3597989  -3601000  -3295173  -2934067  -2828273  -3012445  -3386778  -3594173  -3385891  -3152711  -3817564  -3760691  -3955689  -4068536  -4170827  -4349156  -4436973  -4452000  -4391633  -4424555  -4286382  -4212622  -4220173  -4071264  -4259767  -4180018  -4282027  -4383367  -4375909  -4431127  -4555667 
 999000  999000  999000  999000  999000  999000  999000  999000  999000  999000  999000  999000  999000  999000  999000  999000  999000  999000  999000  999000  999000  999000  999000  999000  999000  999000  999000  999000  999000  999000  999000  999000  999000  999000  999000  999000  999000  999000  999000  999000  999000  999000  999000  999000  999000  999000  999000  999000  999000  999000  999000  999000  999000  999000  999000  999000  999000  999000  999000  999000  999000  999000  999000  999000  999000  999000  999000  999000  999000  999000  999000  999000  999000  999000  999000  999000  999000  999000  999000  999000  999000  999000  999000  999000  999000  999000  999000  999000  999000  999000  999000  999000  999000  999000  999000  999000  999000  -7402  -21496  -20081  -29217  -23413  -134909  -343207  -750777  -1034111  -1088835  -1137661  -1129030  -1091488  -1050769  -1006929  -1058380  -1028736  -1120717  -966959  -722909  -707343  -500264  -670645  -573818  -635810  -860793  -1010303  -1106157  -1220661  -1178414  -1264909  -1355802  -1434788  -1496793  -1298926  -1374848  -1513256  -1864008  -2006212  -2000777  -1970835  -2090768  -2158223  -2284025  -2445091  -2564223  -2690992  -2750586  -2822785  -2917041  -2868242  -2410521  -1802190  -1776374  -2414587  -2285339  -2521778  -2529950  -2538785  -2138889  -1997008  -2588504  -2698061  -2690512  -2813579  -2951040  -3201430  -3220008  -3402384  -3578636  -3597190  -3589929  -3600785  -3598512  -3564141  -3296140  -2096041  -3341444  -4240140  -4181554  -4187091  -4026678  -4029380  -4033818  -3655488  -3382372  -3120475  -2632603  -2613826  -2844343  -3052587  -2959893  -3007162  -3529545  -4015868  -4447020  -4138893  -3938405  -3895591  -2824496  -792333  -120827  -721333  -2697950  -3760609  -3958983  -3771959  -3204527  -3465719  -3959215  -3967018  -4179025  -4560124  -4564473  -3966380  -4242149  -4441818  -4560264  -4535281  -4334718  -4369107  -4400074  -4631418  -4447661  -4618579  -4545773  -4319322  -5284157  -5544227  -3953314  -3082397  -2196827  -1541331  -1028388  -655800  -801471  -997868  -1584445  -1889099  -2259967  -2360264  -1302884  -1827562  -2268409  -2401273  -2480165  -2563936  -2576405  -2814132  -2844673  -2965388  -2925455  -3055509  -3066719  -3164868  -3134055  -3027603  -2939529  -2891066  -2902025  -3052488  -3146027  -2842628  -2810471  -2763573  -2708562  -2531603  -2733445  -2700074  -2605521  -2795709  -2799331  -2594826  -2720355  -2652744  -2041669  -2455255  -2208562  -2862785  -2561909  -2947091  -2681967  -2783382  -2979992  -2701264  -2191445  -1150592  -98136  999000  999000  999000  999000  999000  999000  999000  -39390  -759000  -1255127  -510739  -398000  -2052982  -2474050  -2359174  -1979509  -2023620  -2107950  -1679600  -1249851  -803825  -577505  -783521  -709380  -183431  -270534  -1208595  -2319227  -2375802  -2157380  -2519027  -2106058  -2220017  -2240636  -2384702  -2401388  -2463202  -2335380  -2469083  -2015202  -2180835  -2465942  -2419253  -2353405  -2261116  -2209808  -1776479  -1467983  -1150020  -525452  -611711  -1106283  -1323149  -1426339  -1244727  -1055281  -1986124  -3604121  -4704504  -6530149  -8285566  -7450645  -6376025  -5779717  -5511620  -5324149  -5186323  -5073322  -4960653  -4877697  -4796025  -4714488  -4581374  -4522430  -5152802  -5169869  -4867215  -4574760  -4576313  -4790975  -4597901  -5127010  -5284388  -5004860  -4910828  -4751215  -5215256  -5363505  -5396554  -5440264  -5423091  -5427504  -5479149  -5537869  -5134207  -5152860  -5423697  -5380223  -5402926  -5252788  -5308562  -5321198  -5296455  -5261893  -5215983  -5285333  -5390967  -5333331  -5262010  -5250182  -4090521  -3959333  -4421835  -4636306  -2984747  -2836017  -1289409  -3241404  -4376107  -4745240  -4702111  -4836950  -4884818  -4840727  -4940975  -4848025  -4931535  -5001909  -4938521  -4691263  -4916620  -4900727  -4868263  -4847364  -4935901  -5055232  -5061372  -5035669  -5056586  -5014537  -4907785  -4985424  -4981967  -4917579  -4728081  -4469438  -3488231  -3896606  -4288860  -4658587  -4719505  -4464736  -4035430  -4101313  -4255777  -4488785  -4594293  -4481917  -4551901  -4611545  -4637124  -4714554  -4700788  -4841182  -4923041  -4834475  -4755207  -4625165  -4468697  -4073545  -3436736  -3795980  -4310959  -4154554  -4500980  -4661380  -4668884  -4602485  -4484975  -4309620  -4373879  -4371091  -4421198  -4300939  -4124149  -4136702  -4194808  -4139826  -3941207  -3661020  -3722479  -3669132  -3492081  -3301405  -3323041  -3225970  -2905719  -2614893  -2141323  -2101182  -2393719  -3187990  -3376702  -3619231  -3788434  -3781512  -3447587  -3375081  -3861413  -4120678  -4312778  -4395678  -4443198  -4432323  -4285306  -4172157  -4185747  -4160331  -3995479  -4014616  -4152702  -4270752  -4352758  -4407364  -4404405  -3929354 
 999000  999000  999000  999000  999000  999000  999000  999000  999000  999000  999000  999000  999000  999000  999000  999000  999000  999000  999000  999000  999000  999000  999000  999000  999000  999000  999000  999000  999000  999000  999000  999000  999000  999000  999000  999000  999000  999000  999000  999000  999000  999000  999000  999000  999000  999000  999000  999000  999000  999000  999000  999000  999000  999000  999000  999000  999000  999000  999000  999000  999000  -11342  -10354  -9231  999000  999000  999000  999000  999000  999000  999000  999000  999000  999000  999000  999000  999000  999000  999000  999000  999000  999000  999000  999000  999000  999000  999000  999000  999000  999000  999000  999000  999000  999000  999000  999000  999000  -14484  -22200  -19022  -22706  -116736  -406822  -763536  -1090282  -1145133  -1177136  -1143836  -922833  -1075027  -634427  -198568  -801555  -968155  -976367  -831564  -552609  -511067  -440564  -285136  -366422  -298591  -144682  -254322  -594282  -840427  -770544  -837718  -665991  -938611  -1118273  -1265482  -1411022  -1465636  -1607318  -1785378  -1859582  -1975645  -2017478  -2039391  -2348618  -2320311  -2440700  -2601045  -2634089  -2751309  -2880218  -2923500  -2802055  -2783373  -2677367  -2488127  -2453600  -2135222  -2102118  -2120209  -2200400  -2391300  -2381718  -2507556  -2606273  -2730318  -2919900  -2990036  -3002991  -3326744  -3506636  -3586673  -3551856  -3567755  -3647409  -3628967  -3384755  -2219827  -3223033  -4158127  -4170555  -4123333  -4030891  -4115355  -4105989  -3537064  -3365300  -2922767  -2696745  -2768055  -2843344  -2908255  -2872700  -3164256  -3849391  -4251882  -4328356  -3960682  -3631855  -3890750  -3175755  -1648308  -1873480  -2789600  -3669718  -3907760  -3657382  -3367891  -2340210  -3768709  -4336864  -4284550  -4500218  -5058609  -4403610  -4297000  -4541773  -4573020  -4461773  -4576036  -4706440  -4643436  -4440973  -4596080  -4330973  -4497973  -4833750  -5082927  -5765018  -5051820  -3742373  -2595809  -1238990  -777355  -394974  -252677  -488155  -898900  -1429860  -1922418  -2496964  -2061870  -1702391  -2160555  -2384970  -2505518  -2591164  -2688560  -2803055  -2890600  -2910750  -3022836  -3078936  -2940070  -2925500  -3111036  -3170660  -3161700  -3024627  -2879282  -2929255  -3023582  -3049370  -2789909  -2759909  -2820480  -2805373  -2784055  -2655800  -2758264  -2762473  -2774660  -2759482  -2620536  -2438530  -2463773  -1922755  -2609330  -2320018  -2842745  -2913640  -2435500  -2809009  -2568270  -2912527  -2422409  -1327690  -258393  -16934  999000  999000  999000  999000  999000  999000  999000  -12256  -342895  -1015050  -896991  -189000  -1474309  -2605109  -2590664  -2545430  -2469273  -2148527  -1755430  -1113363  -1123673  -638690  -513064  -481636  -1005990  -854913  -1767709  -2489580  -2458436  -2364173  -2344890  -2180255  -2258818  -2260944  -2416973  -2554573  -2396144  -2400827  -2448418  -2205989  -2368955  -2070100  -2392844  -2340282  -2299236  -2279733  -1866764  -1316236  -1526244  -1031782  -990582  -1080822  -1250018  -1340227  -1472144  -1730418  -2456118  -3381789  -4689464  -5857682  -8045944  -7855200  -6563000  -5819567  -5464336  -5258964  -5016189  -4866936  -4790418  -4714400  -4676000  -4709918  -4831122  -5078518  -5295527  -5082822  -4645664  -4497409  -4757933  -4837882  -5124482  -4289556  -2813600  -4929282  -5003411  -5092782  -5274509  -5372411  -5357936  -5357545  -5459533  -5498464  -5533373  -5530389  -5584236  -5611945  -5511489  -5481118  -5394100  -5292089  -5370082  -5258964  -5350022  -5110591  -5288727  -5308878  -5376482  -5425200  -5388211  -5376227  -5210345  -4797478  -5007200  -5031364  -4463722  -4188418  -3443064  -3817378  -4414691  -4781773  -4875067  -4654136  -4929927  -4800533  -4908636  -4867609  -4845122  -4978573  -4915327  -4866889  -4915964  -4816664  -4900967  -4831536  -4974927  -5026422  -5005118  -5008682  -5137222  -5100555  -5090064  -5009611  -4987600  -5002418  -4716500  -4544318  -4283627  -4023433  -4564127  -4717409  -4856400  -4445173  -4532155  -4601333  -4534555  -4554045  -4588144  -4657300  -4606791  -4764789  -4722182  -4754318  -4740856  -4699045  -4810082  -4811267  -4662755  -4519836  -4609167  -3806009  -1564091  -1906911  -3484736  -4136364  -4517778  -4212918  -4229445  -4377978  -4510555  -4247982  -4496733  -4474682  -4369564  -4298411  -4304455  -4280945  -4223589  -4115345  -3991418  -3703189  -3594345  -3190236  -3580422  -3571036  -3472736  -3298922  -3013473  -2241109  -921527  -474917  -743809  -2590211  -3049736  -3500855  -3848844  -3721736  -2702445  -2339034  -3713373  -4112227  -4235256  -4323155  -4359445  -4343000  -4164027  -4273445  -4157544  -4018664  -3919518  -3941300  -3953227  -4254500  -4371722  -4250891  -3137455  -2095922 
 999000  999000  999000  999000  999000  999000  999000  999000  999000  999000  999000  999000  999000  999000  999000  999000  999000  999000  999000  999000  999000  999000  999000  999000  999000  999000  999000  999000  999000  999000  999000  999000  999000  999000  999000  999000  999000  999000  999000  999000  999000  999000  999000  999000  999000  999000  999000  999000  999000  999000  999000  999000  999000  999000  999000  999000  999000  -14111  -14825  999000  -1433  -3879  -4250  -2698  999000  999000  999000  999000  999000  999000  999000  999000  999000  999000  999000  999000  999000  999000  999000  999000  999000  999000  999000  999000  999000  999000  999000  999000  999000  999000  999000  999000  999000  999000  999000  999000  999000  -14358  -21218  -17922  -28000  -208382  -667633  -1096982  -1191555  -1266656  -1295764  -1012591  -1006467  -1136927  -351355  -57089  -505455  -827991  -936522  -880818  -675364  -509367  -400600  -353555  -401433  -152236  -17573  -13522  -43780  -319009  -536089  -463055  -163982  -444222  -732927  -1025927  -1241678  -1513436  -1512645  -1623667  -1661664  -1644482  -1794100  -2033909  -2290645  -1801856  -2181309  -2365418  -2425278  -2461373  -2682745  -2935667  -2940545  -2663218  -2644322  -2807682  -2538027  -2424144  -1985736  -1356873  -1879756  -2493073  -2431036  -2560944  -2575927  -2696973  -2792589  -2898155  -2924600  -3225833  -3386273  -3434218  -3482989  -3540909  -3533255  -2597144  -2390455  -1878927  -2787400  -3997191  -4109691  -4040056  -4105245  -4184327  -4242256  -3933118  -3598718  -3363311  -3144564  -2796464  -2880211  -2923273  -3258545  -3624511  -3930045  -4062136  -3961433  -3460309  -3489836  -3902290  -3160727  -2666436  -3164930  -3561927  -3885100  -3977870  -3628409  -3168355  -1863860  -3887336  -4463445  -4458580  -4452473  -4431100  -4467500  -4491891  -4738427  -4672960  -4367118  -4448882  -4403700  -4302482  -4585173  -4658250  -4584491  -4704191  -4846370  -5134873  -6258973  -5277650  -3815127  -2592845  -1585560  -338487  999000  -55684  -429189  -984464  -1590920  -2156745  -2367973  -1578370  -1959809  -2329745  -2528030  -2636991  -2793027  -2817350  -2854655  -2892127  -2944760  -2990600  -3049264  -2950350  -2813600  -2874782  -2767350  -2975064  -3034227  -2855109  -2838709  -2838527  -2812360  -2644509  -2599627  -2798840  -2702227  -2754264  -2542330  -2773609  -2847500  -2787810  -2669009  -2365918  -2517470  -2340291  -2289964  -2409570  -2070664  -2601900  -3103750  -2422855  -2902482  -2874230  -2851345  -2266609  -276566  -20200  -16885  999000  999000  999000  999000  999000  999000  -13188  -17755  -154803  -591438  -870776  -1073145  -2080930  -2579455  -2616927  -2527390  -2276636  -2037818  -1725050  -924701  -1080818  -981080  -296857  -199373  -738082  -1860873  -2473391  -2476370  -2478355  -2425927  -2286450  -2285400  -2302127  -2345189  -2449109  -2474691  -2360567  -2350645  -2371909  -2378533  -2596000  -2403736  -2331722  -2300445  -2339300  -2333356  -1993845  -1987036  -2020833  -1175445  -1094909  -1087222  -1247309  -1307818  -1474433  -1908409  -2324136  -3222356  -4384109  -5278782  -7754778  -8185245  -6663300  -5864378  -5355491  -5109991  -4896233  -4666309  -4688409  -4745467  -4863009  -5074082  -5230367  -5339455  -5247500  -5014478  -4262391  -4694400  -4780789  -4984664  -5174300  -4759022  -3809191  -5174564  -5130467  -5159818  -5184245  -5391044  -5490636  -5392200  -5439411  -5503809  -5564555  -5548456  -5643518  -5540091  -5644944  -5582755  -5431900  -5435956  -5342036  -5287182  -5336144  -5332209  -5361145  -5444100  -5356409  -5388091  -5439444  -5359245  -5127791  -5124311  -5205636  -5119491  -4783078  -4586155  -4400009  -4266911  -4572900  -4858882  -4839400  -4753736  -4823200  -4828689  -4935436  -4767982  -4725367  -4839391  -4785373  -4902856  -4892482  -4904200  -4897656  -4874282  -4961727  -4989167  -5042618  -5084355  -5048500  -5168964  -5153718  -5109600  -5098445  -4981300  -4913478  -4860100  -4790518  -4564922  -4623200  -4768282  -4874989  -4618455  -4487927  -4295611  -4520127  -4856636  -4762022  -4748064  -4681564  -4746056  -4765418  -4707273  -4754833  -4770300  -4822027  -4620878  -4427100  -4667045  -4587789  -4099991  -3608773  -3722678  -4484255  -4766264  -4595344  -4410955  -4439382  -4341333  -4388436  -4316482  -4481600  -4374200  -4100445  -4180133  -4125745  -4064418  -4179700  -4056182  -3922864  -3678433  -3244818  -1486350  -3063000  -3533082  -3401955  -3003689  -2586890  -1915684  999000  -234346  -1425050  -2835378  -3279527  -3479318  -3795056  -3809282  -3595327  -3383867  -3837545  -4137409  -4280833  -4304609  -4363845  -4254789  -4047400  -4159418  -4210289  -4044773  -4081382  -4166456  -4244964  -4271464  -3946911  -2737727  -1779791  -2981722 
 999000  999000  999000  999000  999000  999000  999000  999000  999000  999000  999000  999000  999000  999000  999000  999000  999000  999000  999000  999000  999000  999000  999000  999000  999000  999000  999000  999000  999000  999000  999000  999000  999000  999000  999000  999000  999000  999000  999000  999000  999000  999000  999000  999000  999000  999000  999000  999000  999000  999000  999000  999000  999000  999000  999000  999000  -15940  -2861  -2650  -1350  -2152  -2504  -3074  -2172  -1556  -1161  999000  999000  999000  999000  999000  999000  999000  999000  999000  999000  999000  999000  999000  999000  999000  999000  999000  999000  999000  999000  999000  999000  999000  999000  999000  999000  999000  999000  999000  999000  999000  -18474  -20744  -16141  -69678  -435570  -936303  -1247488  -1279752  -1397404  -1422595  -1235099  -1293424  -846496  -88900  -87242  -564736  -826884  -852667  -813975  -662463  -535010  -308983  -306967  -106030  -124975  -27727  -19717  -20421  -25176  -138480  -330860  -225273  -50438  -71942  -566347  -994990  -1173554  -1283107  -1382222  -1442810  -1405446  -1502303  -1917727  -2079884  -2120576  -2123512  -2206612  -2263485  -2200479  -2036826  -2183404  -2608884  -2859107  -2838152  -2838876  -2439843  -2375364  -2367207  -842860  -1561465  -2388289  -2308934  -2490384  -2516008  -2622959  -2768869  -2886934  -2905116  -3044636  -3220554  -3258372  -3369545  -3449372  -3523521  -3215747  -2305769  -2067479  -3239061  -4026289  -4099165  -4077444  -4116901  -4156537  -4165687  -4110917  -3871893  -3923657  -3923298  -3714083  -3779263  -3729479  -3739157  -3916141  -4074736  -3897645  -3666253  -3432223  -3977628  -4103000  -3646769  -4002645  -3983436  -3934901  -3818223  -3571555  -2178636  -2070926  -2442018  -3610281  -4433455  -4518173  -4676851  -3878727  -4239736  -4599826  -4552050  -4447627  -4171074  -4202777  -4357991  -4318554  -4422471  -4640736  -4380653  -4668661  -5088491  -4598050  -5773702  -5181318  -3680785  -3114025  -1927736  -636700  -119155  -131419  -927570  -1553678  -1817109  -1996314  -1853264  -1926282  -2320769  -2437157  -2721164  -2831000  -2952983  -2940882  -2902264  -3000835  -2981264  -3002066  -3040826  -3053364  -2837413  -2956455  -2471700  -2852388  -3080273  -3023702  -2860777  -2810380  -2707836  -2755430  -2746959  -2725800  -2692521  -2768959  -2525145  -2820165  -2918893  -2826291  -2739736  -2611240  -2396055  -2083132  -2162603  -2399900  -2540893  -2748562  -3251327  -2786628  -3160099  -2596736  -2499934  -1901289  -50764  -50058  -24868  -14157  -5276  999000  999000  999000  -11978  -48485  -243521  -395717  -341692  -1441926  -2023182  -2460182  -2566488  -2532529  -2520227  -2248686  -1604207  -1215346  -1209802  -769858  -944945  -526066  -330108  -1171445  -2039959  -2399322  -2499909  -2375645  -2375736  -2192109  -2303653  -2357008  -2387929  -2456306  -2277339  -2326384  -2295587  -2411083  -2322737  -2210545  -2262826  -2331657  -2338231  -2335860  -2322444  -1828587  -2107579  -1986909  -1299165  -854107  -1124455  -1302562  -1358388  -1379808  -1662669  -2013934  -2741475  -4093124  -5032306  -6819061  -8270893  -6836430  -5895566  -5310636  -5009322  -4792141  -4669421  -4768983  -5034182  -5192273  -5282479  -5259525  -5270388  -5049901  -5011374  -4911959  -4956628  -4936869  -5076355  -5228579  -5335576  -5349744  -5335198  -5365162  -5131579  -5213950  -5339909  -5419793  -5409612  -5490869  -5501182  -5549769  -5532889  -5552041  -5292149  -4928253  -5033760  -5500620  -5512596  -5468661  -5450843  -5444404  -5402314  -5329405  -5431283  -5457132  -5522041  -5594970  -5576314  -5444570  -5359960  -5393818  -5300562  -5116303  -5000661  -4854884  -4782212  -4811264  -4899231  -4863657  -4767438  -4643207  -4911697  -4766405  -4737025  -4781505  -4757050  -4817231  -4943222  -4968256  -4971264  -4922071  -4930983  -4918901  -4932444  -5054273  -5152281  -5143899  -5158686  -5084157  -5079626  -5090992  -5070000  -4940798  -4886372  -4987669  -4887727  -4836545  -4843488  -4844576  -4749017  -5083826  -4913455  -4824298  -4842017  -4840505  -4829893  -4781405  -4731253  -4805306  -4804736  -4825152  -4845446  -4805314  -4421162  -3188198  -4555959  -4705677  -4702479  -4637645  -4592667  -4664264  -4666207  -4633182  -4502570  -4376653  -4375040  -4415628  -4377355  -4377182  -4450579  -4247686  -4147556  -4099190  -4086488  -4056242  -3991083  -3898025  -3774505  -3537711  -2860149  -3410293  -3578752  -2984636  -2284939  -768779  -1360894  -783039  -1146978  -2531967  -3077798  -3117446  -3541868  -3846091  -3933612  -3773488  -3361788  -3859959  -4168231  -4212313  -4180818  -3900686  -3646253  -3661421  -3740868  -4113465  -4031298  -4138504  -4225323  -4154876  -3488653  -2038701  -1351456  -2952744  -3925182 
[...]
 3  3  3  3  3  3  3  3  3  3  3  3  3  3  3  3  3  3  3  3  3  3  3  3  3  3  3  3  3  3  3  3  3  3  3  3  3  3  3  3  3  3  3  3  3  3  3  3  3  3  3  3  3  3  3  3  3  3  3  3  3  3  3  3  3  3  3  3  3  3  3  3  3  3  3  3  3  3  3  3  3  3  3  3  3  3  3  3  3  3  3  3  3  3  3  3  3  3  3  3  3  3  3  3  3  3  3  3  3  3  3  3  3  3  3  3  3  3  3  3  3  3  3  3  3  3  3  3  3  3  3  3  3  3  3  3  3  3  3  3  3  3  3  3  3  3  3  3  3  3  3  3  3  3  3  3  3  3  3  3  3  3  3  3  3  3  3  3  3  3  3  3  3  3  3  3  3  3  3  3  3  3  3  3  3  3  3  3  3  3  3  3  3  3  3  3  3  3  3  3  3  3  3  3  3  3  3  3  3  3  3  3  3  3  3  3  3  3  3  3  3  3  3  3  3  3  3  3  3  3  3  3  3  3  3  3  3  3  3  3  3  3  3  3  3  3  3  3  3  3  3  3  3  3  3  3  3  3  3  3  3  3  3  3  3  3  3  3  3  3  3  3  3  3  3  3  3  3  3  3  3  3  3  3  3  3  3  3  3  3  3  3  3  3  3  3  3  3  3  3  3  3  3  3  3  3  3  3  3  3  3  3  3  3  3  3  3  3  3  3  3  3  3  3  3  3  3  3  3  3  3  3  3  3  3  3  3  3  3  3  3  3  3  3  3  3  3  3  3  3  3  3  3  3  3  3  3  3  3  3  3  3  3  3  3  3  3  3  3  3  3  3  3  3  3  3  3  3  3  3  3  3  3  3  3  3  3  3  3  3  3  3  3  3  3  3  3  3  3  3  3  3  3  3  3  3  3  3  3  3  3  3  3  3  3  3  3  3  3  3  3  3  3  3  3  3  3  3  3  3  3  3  3  3  3  3  3  3  3  3  3  3  3  3  3  3  3  3  3  3  3  3  3  3  3  3  3  3  3  3  3  3  3  3  3  3  3  3  3  3  3  3  3  3  3  3  3  3  3  3  3  3  3  3  3  3  3  3  3  3  3  3  3  3  3  3  3  3  3  3  3  3  3  3  3  3  3  3  3  3  3 
 3  3  3  3  3  3  3  3  3  3  3  3  3  3  3  3  3  3  3  3  3  3  3  3  3  3  3  3  3  3  3  3  3  3  3  3  3  3  3  3  3  3  3  3  3  3  3  3  3  3  3  3  3  3  3  3  3  3  3  3  3  3  3  3  3  3  3  3  3  3  3  3  3  3  3  3  3  3  3  3  3  3  3  3  3  3  3  3  3  3  3  3  3  3  3  3  3  3  3  3  3  3  3  3  3  3  3  3  3  3  3  3  3  3  3  3  3  3  3  3  3  3  3  3  3  3  3  3  3  3  3  3  3  3  3  3  3  3  3  3  3  3  3  3  3  3  3  3  3  3  3  3  3  3  3  3  3  3  3  3  3  3  3  3  3  3  3  3  3  3  3  3  3  3  3  3  3  3  3  3  3  3  3  3  3  3  3  3  3  3  3  3  3  3  3  3  3  3  3  3  3  3  3  3  3  3  3  3  3  3  3  3  3  3  3  3  3  3  3  3  3  3  3  3  3  3  3  3  3  3  3  3  3  3  3  3  3  3  3  3  3  3  3  3  3  3  3  3  3  3  3  3  3  3  3  3  3  3  3  3  3  3  3  3  3  3  3  3  3  3  3  3  3  3  3  3  3  3  3  3  3  3  3  3  3  3  3  3  3  3  3  3  3  3  3  3  3  3  3  3  3  3  3  3  3  3  3  3  3  3  3  3  3  3  3  3  3  3  3  3  3  3  3  3  3  3  3  3  3  3  3  3  3  3  3  3  3  3  3  3  3  3  3  3  3  3  3  3  3  3  3  3  3  3  3  3  3  3  3  3  3  3  3  3  3  3  3  3  3  3  3  3  3  3  3  3  3  3  3  3  3  3  3  3  3  3  3  3  3  3  3  3  3  3  3  3  3  3  3  3  3  3  3  3  3  3  3  3  3  3  3  3  3  3  3  3  3  3  3  3  3  3  3  3  3  3  3  3  3  3  3  3  3  3  3  3  3  3  3  3  3  3  3  3  3  3  3  3  3  3  3  3  3  3  3  3  3  3  3  3  3  3  3  3  3  3  3  3  3  3  3  3  3  3  3  3  3  3  3  3  3  3  3  3  3  3  3  3  3  3  3  3  3  3  3  3  3  3  3  3  3  3  3  3  3  3  3  3  3  3  3 
 3  3  3  3  3  3  3  3  3  3  3  3  3  3  3  3  3  3  3  3  3  3  3  3  3  3  3  3  3  3  3  3  3  3  3  3  3  3  3  3  3  3  3  3  3  3  3  3  3  3  3  3  3  3  3  3  3  3  3  3  3  3  3  3  3  3  3  3  3  3  3  3  3  3  3  3  3  3  3  3  3  3  3  3  3  3  3  3  3  3  3  3  3  3  3  3  3  3  3  3  3  3  3  3  3  3  3  3  3  3  3  3  3  3  3  3  3  3  3  3  3  3  3  3  3  3  3  3  3  3  3  3  3  3  3  3  3  3  3  3  3  3  3  3  3  3  3  3  3  3  3  3  3  3  3  3  3  3  3  3  3  3  3  3  3  3  3  3  3  3  3  3  3  3  3  3  3  3  3  3  3  3  3  3  3  3  3  3  3  3  3  3  3  3  3  3  3  3  3  3  3  3  3  3  3  3  3  3  3  3  3  3  3  3  3  3  3  3  3  3  3  3  3  3  3  3  3  3  3  3  3  3  3  3  3  3  3  3  3  3  3  3  3  3  3  3  3  3  3  3  3  3  3  3  3  3  3  3  3  3  3  3  3  3  3  3  3  3  3  3  3  3  3  3  3  3  3  3  3  3  3  3  3  3  3  3  3  3  3  3  3  3  3  3  3  3  3  3  3  3  3  3  3  3  3  3  3  3  3  3  3  3  3  3  3  3  3  3  3  3  3  3  3  3  3  3  3  3  3  3  3  3  3  3  3  3  3  3  3  3  3  3  3  3  3  3  3  3  3  3  3  3  3  3  3  3  3  3  3  3  3  3  3  3  3  3  3  3  3  3  3  3  3  3  3  3  3  3  3  3  3  3  3  3  3  3  3  3  3  3  3  3  3  3  3  3  3  3  3  3  3  3  3  3  3  3  3  3  3  3  3  3  3  3  3  3  3  3  3  3  3  3  3  3  3  3  3  3  3  3  3  3  3  3  3  3  3  3  3  3  3  3  3  3  3  3  3  3  3  3  3  3  3  3  3  3  3  3  3  3  3  3  3  3  3  3  3  3  3  3  3  3  3  3  3  3  3  3  3  3  3  3  3  3  3  3  3  3  3  3  3  3  3  3  3  3  3  3  3  3  3  3  3  3  3  3  3  3  3  3  3 
 3  3  3  3  3  3  3  3  3  3  3  3  3  3  3  3  3  3  3  3  3  3  3  3  3  3  3  3  3  3  3  3  3  3  3  3  3  3  3  3  3  3  3  3  3  3  3  3  3  3  3  3  3  3  3  3  3  3  3  3  3  3  3  3  3  3  3  3  3  3  3  3  3  3  3  3  3  3  3  3  3  3  3  3  3  3  3  3  3  3  3  3  3  3  3  3  3  3  3  3  3  3  3  3  3  3  3  3  3  3  3  3  3  3  3  3  3  3  3  3  3  3  3  3  3  3  3  3  3  3  3  3  3  3  3  3  3  3  3  3  3  3  3  3  3  3  3  3  3  3  3  3  3  3  3  3  3  3  3  3  3  3  3  3  3  3  3  3  3  3  3  3  3  3  3  3  3  3  3  3  3  3  3  3  3  3  3  3  3  3  3  3  3  3  3  3  3  3  3  3  3  3  3  3  3  3  3  3  3  3  3  3  3  3  3  3  3  3  3  3  3  3  3  3  3  3  3  3  3  3  3  3  3  3  3  3  3  3  3  3  3  3  3  3  3  3  3  3  3  3  3  3  3  3  3  3  3  3  3  3  3  3  3  3  3  3  3  3  3  3  3  3  3  3  3  3  3  3  3  3  3  3  3  3  3  3  3  3  3  3  3  3  3  3  3  3  3  3  3  3  3  3  3  3  3  3  3  3  3  3  3  3  3  3  3  3  3  3  3  3  3  3  3  3  3  3  3  3  3  3  3  3  3  3  3  3  3  3  3  3  3  3  3  3  3  3  3  3  3  3  3  3  3  3  3  3  3  3  3  3  3  3  3  3  3  3  3  3  3  3  3  3  3  3  3  3  3  3  3  3  3  3  3  3  3  3  3  3  3  3  3  3  3  3  3  3  3  3  3  3  3  3  3  3  3  3  3  3  3  3  3  3  3  3  3  3  3  3  3  3  3  3  3  3  3  3  3  3  3  3  3  3  3  3  3  3  3  3  3  3  3  3  3  3  3  3  3  3  3  3  3  3  3  3  3  3  3  3  3  3  3  3  3  3  3  3  3  3  3  3  3  3  3  3  3  3  3  3  3  3  3  3  3  3  3  3  3  3  3  3  3  3  3  3  3  3  3  3  3  3  3  3  3  3  3  3  3  3  3  3  3 
 3  3  3  3  3  3  3  3  3  3  3  3  3  3  3  3  3  3  3  3  3  3  3  3  3  3  3  3  3  3  3  3  3  3  3  3  3  3  3  3  3  3  3  3  3  3  3  3  3  3  3  3  3  3  3  3  3  3  3  3  3  3  3  3  3  3  3  3  3  3  3  3  3  3  3  3  3  3  3  3  3  3  3  3  3  3  3  3  3  3  3  3  3  3  3  3  3  3  3  3  3  3  3  3  3  3  3  3  3  3  3  3  3  3  3  3  3  3  3  3  3  3  3  3  3  3  3  3  3  3  3  3  3  3  3  3  3  3  3  3  3  3  3  3  3  3  3  3  3  3  3  3  3  3  3  3  3  3  3  3  3  3  3  3  3  3  3  3  3  3  3  3  3  3  3  3  3  3  3  3  3  3  3  3  3  3  3  3  3  3  3  3  3  3  3  3  3  3  3  3  3  3  3  3  3  3  3  3  3  3  3  3  3  3  3  3  3  3  3  3  3  3  3  3  3  3  3  3  3  3  3  3  3  3  3  3  3  3  3  3  3  3  3  3  3  3  3  3  3  3  3  3  3  3  3  3  3  3  3  3  3  3  3  3  3  3  3  3  3  3  3  3  3  3  3  3  3  3  3  3  3  3  3  3  3  3  3  3  3  3  3  3  3  3  3  3  3  3  3  3  3  3  3  3  3  3  3  3  3  3  3  3  3  3  3  3  3  3  3  3  3  3  3  3  3  3  3  3  3  3  3  3  3  3  3  3  3  3  3  3  3  3  3  3  3  3  3  3  3  3  3  3  3  3  3  3  3  3  3  3  3  3  3  3  3  3  3  3  3  3  3  3  3  3  3  3  3  3  3  3  3  3  3  3  3  3  3  3  3  3  3  3  3  3  3  3  3  3  3  3  3  3  3  3  3  3  3  3  3  3  3  3  3  3  3  3  3  3  3  3  3  3  3  3  3  3  3  3  3  3  3  3  3  3  3  3  3  3  3  3  3  3  3  3  3  3  3  3  3  3  3  3  3  3  3  3  3  3  3  3  3  3  3  3  3  3  3  3  3  3  3  3  3  3  3  3  3  3  3  3  3  3  3  3  3  3  3  3  3  3  3  3  3  3  3  3  3  3  3  3  3  3  3  3  3  3  3  3  3  3  3 
 3  3  3  3  3  3  3  3  3  3  3  3  3  3  3  3  3  3  3  3  3  3  3  3  3  3  3  3  3  3  3  3  3  3  3  3  3  3  3  3  3  3  3  3  3  3  3  3  3  3  3  3  3  3  3  3  3  3  3  3  3  3  3  3  3  3  3  3  3  3  3  3  3  3  3  3  3  3  3  3  3  3  3  3  3  3  3  3  3  3  3  3  3  3  3  3  3  3  3  3  3  3  3  3  3  3  3  3  3  3  3  3  3  3  3  3  3  3  3  3  3  3  3  3  3  3  3  3  3  3  3  3  3  3  3  3  3  3  3  3  3  3  3  3  3  3  3  3  3  3  3  3  3  3  3  3  3  3  3  3  3  3  3  3  3  3  3  3  3  3  3  3  3  3  3  3  3  3  3  3  3  3  3  3  3  3  3  3  3  3  3  3  3  3  3  3  3  3  3  3  3  3  3  3  3  3  3  3  3  3  3  3  3  3  3  3  3  3  3  3  3  3  3  3  3  3  3  3  3  3  3  3  3  3  3  3  3  3  3  3  3  3  3  3  3  3  3  3  3  3  3  3  3  3  3  3  3  3  3  3  3  3  3  3  3  3  3  3  3  3  3  3  3  3  3  3  3  3  3  3  3  3  3  3  3  3  3  3  3  3  3  3  3  3  3  3  3  3  3  3  3  3  3  3  3  3  3  3  3  3  3  3  3  3  3  3  3  3  3  3  3  3  3  3  3  3  3  3  3  3  3  3  3  3  3  3  3  3  3  3  3  3  3  3  3  3  3  3  3  3  3  3  3  3  3  3  3  3  3  3  3  3  3  3  3  3  3  3  3  3  3  3  3  3  3  3  3  3  3  3  3  3  3  3  3  3  3  3  3  3  3  3  3  3  3  3  3  3  3  3  3  3  3  3  3  3  3  3  3  3  3  3  3  3  3  3  3  3  3  3  3  3  3  3  3  3  3  3  3  3  3  3  3  3  3  3  3  3  3  3  3  3  3  3  3  3  3  3  3  3  3  3  3  3  3  3  3  3  3  3  3  3  3  3  3  3  3  3  3  3  3  3  3  3  3  3  3  3  3  3  3  3  3  3  3  3  3  3  3  3  3  3  3  3  3  3  3  3  3  3  3  3  3  3  3  3  3  3  3  3  3 
 3  3  3  3  3  3  3  3  3  3  3  3  3  3  3  3  3  3  3  3  3  3  3  3  3  3  3  3  3  3  3  3  3  3  3  3  3  3  3  3  3  3  3  3  3  3  3  3  3  3  3  3  3  3  3  3  3  3  3  3  3  3  3  3  3  3  3  3  3  3  3  3  3  3  3  3  3  3  3  3  3  3  3  3  3  3  3  3  3  3  3  3  3  3  3  3  3  3  3  3  3  3  3  3  3  3  3  3  3  3  3  3  3  3  3  3  3  3  3  3  3  3  3  3  3  3  3  3  3  3  3  3  3  3  3  3  3  3  3  3  3  3  3  3  3  3  3  3  3  3  3  3  3  3  3  3  3  3  3  3  3  3  3  3  3  3  3  3  3  3  3  3  3  3  3  3  3  3  3  3  3  3  3  3  3  3  3  3  3  3  3  3  3  3  3  3  3  3  3  3  3  3  3  3  3  3  3  3  3  3  3  3  3  3  3  3  3  3  3  3  3  3  3  3  3  3  3  3  3  3  3  3  3  3  3  3  3  3  3  3  3  3  3  3  3  3  3  3  3  3  3  3  3  3  3  3  3  3  3  3  3  3  3  3  3  3  3  3  3  3  3  3  3  3  3  3  3  3  3  3  3  3  3  3  3  3  3  3  3  3  3  3  3  3  3  3  3  3  3  3  3  3  3  3  3  3  3  3  3  3  3  3  3  3  3  3  3  3  3  3  3  3  3  3  3  3  3  3  3  3  3  3  3  3  3  3  3  3  3  3  3  3  3  3  3  3  3  3  3  3  3  3  3  3  3  3  3  3  3  3  3  3  3  3  3  3  3  3  3  3  3  3  3  3  3  3  3  3  3  3  3  3  3  3  3  3  3  3  3  3  3  3  3  3  3  3  3  3  3  3  3  3  3  3  3  3  3  3  3  3  3  3  3  3  3  3  3  3  3  3  3  3  3  3  3  3  3  3  3  3  3  3  3  3  3  3  3  3  3  3  3  3  3  3  3  3  3  3  3  3  3  3  3  3  3  3  3  3  3  3  3  3  3  3  3  3  3  3  3  3  3  3  3  3  3  3  3  3  3  3  3  3  3  3  3  3  3  3  3  3  3  3  3  3  3  3  3  3  3  3  3  3  3  3  3  3  3  3  3  3  3 
 3  3  3  3  3  3  3  3  3  3  3  3  3  3  3  3  3  3  3  3  3  3  3  3  3  3  3  3  3  3  3  3  3  3  3  3  3  3  3  3  3  3  3  3  3  3  3  3  3  3  3  3  3  3  3  3  3  3  3  3  3  3  3  3  3  3  3  3  3  3  3  3  3  3  3  3  3  3  3  3  3  3  3  3  3  3  3  3  3  3  3  3  3  3  3  3  3  3  3  3  3  3  3  3  3  3  3  3  3  3  3  3  3  3  3  3  3  3  3  3  3  3  3  3  3  3  3  3  3  3  3  3  3  3  3  3  3  3  3  3  3  3  3  3  3  3  3  3  3  3  3  3  3  3  3  3  3  3  3  3  3  3  3  3  3  3  3  3  3  3  3  3  3  3  3  3  3  3  3  3  3  3  3  3  3  3  3  3  3  3  3  3  3  3  3  3  3  3  3  3  3  3  3  3  3  3  3  3  3  3  3  3  3  3  3  3  3  3  3  3  3  3  3  3  3  3  3  3  3  3  3  3  3  3  3  3  3  3  3  3  3  3  3  3  3  3  3  3  3  3  3  3  3  3  3  3  3  3  3  3  3  3  3  3  3  3  3  3  3  3  3  3  3  3  3  3  3  3  3  3  3  3  3  3  3  3  3  3  3  3  3  3  3  3  3  3  3  3  3  3  3  3  3  3  3  3  3  3  3  3  3  3  3  3  3  3  3  3  3  3  3  3  3  3  3  3  3  3  3  3  3  3  3  3  3  3  3  3  3  3  3  3  3  3  3  3  3  3  3  3  3  3  3  3  3  3  3  3  3  3  3  3  3  3  3  3  3  3  3  3  3  3  3  3  3  3  3  3  3  3  3  3  3  3  3  3  3  3  3  3  3  3  3  3  3  3  3  3  3  3  3  3  3  3  3  3  3  3  3  3  3  3  3  3  3  3  3  3  3  3  3  3  3  3  3  3  3  3  3  3  3  3  3  3  3  3  3  3  3  3  3  3  3  3  3  3  3  3  3  3  3  3  3  3  3  3  3  3  3  3  3  3  3  3  3  3  3  3  3  3  3  3  3  3  3  3  3  3  3  3  3  3  3  3  3  3  3  3  3  3  3  3  3  3  3  3  3  3  3  3  3  3  3  3  3  3  3  3  3  3  3 
 3  3  3  3  3  3  3  3  3  3  3  3  3  3  3  3  3  3  3  3  3  3  3  3  3  3  3  3  3  3  3  3  3  3  3  3  3  3  3  3  3  3  3  3  3  3  3  3  3  3  3  3  3  3  3  3  3  3  3  3  3  3  3  3  3  3  3  3  3  3  3  3  3  3  3  3  3  3  3  3  3  3  3  3  3  3  3  3  3  3  3  3  3  3  3  3  3  3  3  3  3  3  3  3  3  3  3  3  3  3  3  3  3  3  3  3  3  3  3  3  3  3  3  3  3  3  3  3  3  3  3  3  3  3  3  3  3  3  3  3  3  3  3  3  3  3  3  3  3  3  3  3  3  3  3  3  3  3  3  3  3  3  3  3  3  3  3  3  3  3  3  3  3  3  3  3  3  3  3  3  3  3  3  3  3  3  3  3  3  3  3  3  3  3  3  3  3  3  3  3  3  3  3  3  3  3  3  3  3  3  3  3  3  3  3  3  3  3  3  3  3  3  3  3  3  3  3  3  3  3  3  3  3  3  3  3  3  3  3  3  3  3  3  3  3  3  3  3  3  3  3  3  3  3  3  3  3  3  3  3  3  3  3  3  3  3  3  3  3  3  3  3  3  3  3  3  3  3  3  3  3  3  3  3  3  3  3  3  3  3  3  3  3  3  3  3  3  3  3  3  3  3  3  3  3  3  3  3  3  3  3  3  3  3  3  3  3  3  3  3  3  3  3  3  3  3  3  3  3  3  3  3  3  3  3  3  3  3  3  3  3  3  3  3  3  3  3  3  3  3  3  3  3  3  3  3  3  3  3  3  3  3  3  3  3  3  3  3  3  3  3  3  3  3  3  3  3  3  3  3  3  3  3  3  3  3  3  3  3  3  3  3  3  3  3  3  3  3  3  3  3  3  3  3  3  3  3  3  3  3  3  3  3  3  3  3  3  3  3  3  3  3  3  3  3  3  3  3  3  3  3  3  3  3  3  3  3  3  3  3  3  3  3  3  3  3  3  3  3  3  3  3  3  3  3  3  3  3  3  3  3  3  3  3  3  3  3  3  3  3  3  3  3  3  3  3  3  3  3  3  3  3  3  3  3  3  3  3  3  3  3  3  3  3  3  3  3  3  3  3  3  3  3  3  3  3  3  3  3  3  3 
 3  3  3  3  3  3  3  3  3  3  3  3  3  3  3  3  3  3  3  3  3  3  3  3  3  3  3  3  3  3  3  3  3  3  3  3  3  3  3  3  3  3  3  3  3  3  3  3  3  3  3  3  3  3  3  3  3  3  3  3  3  3  3  3  3  3  3  3  3  3  3  3  3  3  3  3  3  3  3  3  3  3  3  3  3  3  3  3  3  3  3  3  3  3  3  3  3  3  3  3  3  3  3  3  3  3  3  3  3  3  3  3  3  3  3  3  3  3  3  3  3  3  3  3  3  3  3  3  3  3  3  3  3  3  3  3  3  3  3  3  3  3  3  3  3  3  3  3  3  3  3  3  3  3  3  3  3  3  3  3  3  3  3  3  3  3  3  3  3  3  3  3  3  3  3  3  3  3  3  3  3  3  3  3  3  3  3  3  3  3  3  3  3  3  3  3  3  3  3  3  3  3  3  3  3  3  3  3  3  3  3  3  3  3  3  3  3  3  3  3  3  3  3  3  3  3  3  3  3  3  3  3  3  3  3  3  3  3  3  3  3  3  3  3  3  3  3  3  3  3  3  3  3  3  3  3  3  3  3  3  3  3  3  3  3  3  3  3  3  3  3  3  3  3  3  3  3  3  3  3  3  3  3  3  3  3  3  3  3  3  3  3  3  3  3  3  3  3  3  3  3  3  3  3  3  3  3  3  3  3  3  3  3  3  3  3  3  3  3  3  3  3  3  3  3  3  3  3  3  3  3  3  3  3  3  3  3  3  3  3  3  3  3  3  3  3  3  3  3  3  3  3  3  3  3  3  3  3  3  3  3  3  3  3  3  3  3  3  3  3  3  3  3  3  3  3  3  3  3  3  3  3  3  3  3  3  3  3  3  3  3  3  3  3  3  3  3  3  3  3  3  3  3  3  3  3  3  3  3  3  3  3  3  3  3  3  3  3  3  3  3  3  3  3  3  3  3  3  3  3  3  3  3  3  3  3  3  3  3  3  3  3  3  3  3  3  3  3  3  3  3  3  3  3  3  3  3  3  3  3  3  3  3  3  3  3  3  3  3  3  3  3  3  3  3  3  3  3  3  3  3  3  3  3  3  3  3  3  3  3  3  3  3  3  3  3  3  3  3  3  3  3  3  3  3  3  3  3  3  3  3 
 3  3  3  3  3  3  3  3  3  3  3  3  3  3  3  3  3  3  3  3  3  3  3  3  3  3  3  3  3  3  3  3  3  3  3  3  3  3  3  3  3  3  3  3  3  3  3  3  3  3  3  3  3  3  3  3  3  3  3  3  3  3  3  3  3  3  3  3  3  3  3  3  3  3  3  3  3  3  3  3  3  3  3  3  3  3  3  3  3  3  3  3  3  3  3  3  3  3  3  3  3  3  3  3  3  3  3  3  3  3  3  3  3  3  3  3  3  3  3  3  3  3  3  3  3  3  3  3  3  3  3  3  3  3  3  3  3  3  3  3  3  3  3  3  3  3  3  3  3  3  3  3  3  3  3  3  3  3  3  3  3  3  3  3  3  3  3  3  3  3  3  3  3  3  3  3  3  3  3  3  3  3  3  3  3  3  3  3  3  3  3  3  3  3  3  3  3  3  3  3  3  3  3  3  3  3  3  3  3  3  3  3  3  3  3  3  3  3  3  3  3  3  3  3  3  3  3  3  3  3  3  3  3  3  3  3  3  3  3  3  3  3  3  3  3  3  3  3  3  3  3  3  3  3  3  3  3  3  3  3  3  3  3  3  3  3  3  3  3  3  3  3  3  3  3  3  3  3  3  3  3  3  3  3  3  3  3  3  3  3  3  3  3  3  3  3  3  3  3  3  3  3  3  3  3  3  3  3  3  3  3  3  3  3  3  3  3  3  3  3  3  3  3  3  3  3  3  3  3  3  3  3  3  3  3  3  3  3  3  3  3  3  3  3  3  3  3  3  3  3  3  3  3  3  3  3  3  3  3  3  3  3  3  3  3  3  3  3  3  3  3  3  3  3  3  3  3  3  3  3  3  3  3  3  3  3  3  3  3  3  3  3  3  3  3  3  3  3  3  3  3  3  3  3  3  3  3  3  3  3  3  3  3  3  3  3  3  3  3  3  3  3  3  3  3  3  3  3  3  3  3  3  3  3  3  3  3  3  3  3  3  3  3  3  3  3  3  3  3  3  3  3  3  3  3  3  3  3  3  3  3  3  3  3  3  3  3  3  3  3  3  3  3  3  3  3  3  3  3  3  3  3  3  3  3  3  3  3  3  3  3  3  3  3  3  3  3  3  3  3  3  3  3  3  3  3  3  3  3  3  3 
 3  3  3  3  3  3  3  3  3  3  3  3  3  3  3  3  3  3  3  3  3  3  3  3  3  3  3  3  3  3  3  3  3  3  3  3  3  3  3  3  3  3  3  3  3  3  3  3  3  3  3  3  3  3  3  3  3  3  3  3  3  3  3  3  3  3  3  3  3  3  3  3  3  3  3  3  3  3  3  3  3  3  3  3  3  3  3  3  3  3  3  3  3  3  3  3  3  3  3  3  3  3  3  3  3  3  3  3  3  3  3  3  3  3  3  3  3  3  3  3  3  3  3  3  3  3  3  3  3  3  3  3  3  3  3  3  3  3  3  3  3  3  3  3  3  3  3  3  3  3  3  3  3  3  3  3  3  3  3  3  3  3  3  3  3  3  3  3  3  3  3  3  3  3  3  3  3  3  3  3  3  3  3  3  3  3  3  3  3  3  3  3  3  3  3  3  3  3  3  3  3  3  3  3  3  3  3  3  3  3  3  3  3  3  3  3  3  3  3  3  3  3  3  3  3  3  3  3  3  3  3  3  3  3  3  3  3  3  3  3  3  3  3  3  3  3  3  3  3  3  3  3  3  3  3  3  3  3  3  3  3  3  3  3  3  3  3  3  3  3  3  3  3  3  3  3  3  3  3  3  3  3  3  3  3  3  3  3  3  3  3  3  3  3  3  3  3  3  3  3  3  3  3  3  3  3  3  3  3  3  3  3  3  3  3  3  3  3  3  3  3  3  3  3  3  3  3  3  3  3  3  3  3  3  3  3  3  3  3  3  3  3  3  3  3  3  3  3  3  3  3  3  3  3  3  3  3  3  3  3  3  3  3  3  3  3  3  3  3  3  3  3  3  3  3  3  3  3  3  3  3  3  3  3  3  3  3  3  3  3  3  3  3  3  3  3  3  3  3  3  3  3  3  3  3  3  3  3  3  3  3  3  3  3  3  3  3  3  3  3  3  3  3  3  3  3  3  3  3  3  3  3  3  3  3  3  3  3  3  3  3  3  3  3  3  3  3  3  3  3  3  3  3  3  3  3  3  3  3  3  3  3  3  3  3  3  3  3  3  3  3  3  3  3  3  3  3  3  3  3  3  3  3  3  3  3  3  3  3  3  3  3  3  3  3  3  3  3  3  3  3  3  3  3  3  3  3  3  3  3  3 
$
      0.  0.  0.  0.  0
$ -------------------------------------------------------------------- $
$ End of input file                                                    $
$ -------------------------------------------------------------------- $
