$ -------------------------------------------------------------------- $
$ WAVEWATCH III Grid preprocessor input file                           $
$ -------------------------------------------------------------------- $
  'NW Atlantic 10 min wave grid  '
$
   1.07  0.035  50  36  0.5
$
   F T T T F T
$
$   900. 410. 450.  15.                              
$  1200. 410. 600.  15.                              
   1800. 410. 900.  15.                              
$
  &SIN4 BETAMAX = 1.33 /
  &MISC CICE0 = 0.25, CICEN = 0.75, FLAGTR = 4 /
END OF NAMELISTS
$
    'RECT' T 'NONE'
    301    331
      1.     1.     6.
    260.     0.     1.
     -0.1 2.50  10  0.001 1 1 '(....)' 'NAME' 'at_10m.bot'
 -3276479  -3287455  -3380491  -3274124  -3298973  -3277673  -3341769  -3247609  -3348045  -3304554  -3330273  -3304782  -3285554  -3299436  -3320936  -3279835  -3246273  -3219827  -3287818  -3277073  -3275755  -3255686  -3246345  -3302164  -3260760  -3261636  -3271555  -3263612  -3283045  -3307945  -3328430  -3355727  -3353709  -3325058  -3353955  -3287645  -3245909  -3257464  -3210809  -3104149  -3221955  -3177945  -3054711  -3031673  -3002291  -3018603  -3087991  -3121473  -3218405  -3111209  -2219872  -987000  999000  -1605855  -2409413  -1472291  -1630045  -1827793  -820109  -825227  -1014488  -1269636  -1638945  -1789554  -1618064  -1702709  -2181876  -2400645  -2315700  -1864165  -2356473  -2377227  -2408231  -2487664  -2573918  -2585140  -2637709  -2668336  -2677017  -2732655  -2812009  -2851545  -2854818  -2891936  -2864545  -2902691  -3039591  -3374355  -3174164  -3185591  -3326901  -3409809  -3197645  -3094306  -3173745  -3161518  -3336843  -2897809  -2802809  -2994777  -2851009  -2771864  -2297975  -2390927  -2256400  -2183264  -1909518  -1548755  -1300959  -1151827  -1175900  -1410893  -1711164  -2248027  -2728595  -1539800  -704573  -117612  -50236  -19058  999000  999000  999000  999000  999000  999000  999000  999000  999000  999000  999000  999000  999000  999000  999000  999000  999000  999000  999000  999000  999000  999000  999000  999000  999000  999000  999000  999000  999000  999000  999000  999000  999000  999000  999000  999000  999000  999000  999000  999000  999000  999000  999000  999000  999000  999000  999000  999000  999000  999000  999000  999000  999000  999000  999000  999000  999000  999000  999000  999000  999000  999000  999000  999000  999000  999000  999000  999000  999000  999000  999000  999000  999000  999000  999000  999000  999000  999000  999000  999000  999000  999000  999000  999000  999000  999000  999000  999000  999000  999000  999000  999000  999000  999000  999000  999000  999000  999000  999000  999000  999000  999000  999000  999000  999000  999000  999000  999000  999000  999000  999000  999000  999000  999000  999000  999000  999000  999000  999000  999000  999000  999000  999000  999000  999000  999000  999000  999000  999000  999000  999000  999000  999000  999000  999000  999000  999000  999000  999000  999000  999000  999000  999000  999000  999000  999000  999000  999000  999000  999000  999000  999000  999000  999000  999000  999000  999000  999000  999000  999000  999000  999000  999000  999000  999000  999000  999000  999000  999000  999000  999000  999000  999000  999000  -1132  -865  -1000  -1255  -1205  -1235  -1435 
 -3320091  -3336860  -3273790  -3280345  -3290850  -3388140  -3241855  -3272490  -3316880  -3293345  -3313160  -3339960  -3317973  -3241510  -3236290  -3235000  -3233120  -3203530  -3259464  -3239430  -3279570  -3331991  -3305810  -3317430  -3288418  -3282130  -3233410  -3274982  -3319940  -3287620  -3314255  -3307090  -3286550  -3274064  -3286150  -3239300  -3248627  -3163250  -3049960  -3121555  -3214640  -3104480  -3065036  -3011870  -3016030  -2997636  -2947860  -2961100  -3055591  -3226380  -2849320  -1660660  -1136893  -2785150  -2969318  -2823970  -2211130  -1440773  -867410  -1487110  -1572818  -1829720  -2066210  -2121864  -2109500  -1911560  -1988827  -2397370  -2411060  -2352464  -2443300  -2529180  -2536991  -2557460  -2622080  -2645464  -2686100  -2673950  -2691164  -2748950  -2746430  -2769836  -2810270  -2890380  -2949464  -2975010  -3019690  -3259664  -3078130  -3030430  -3215527  -3302350  -3310100  -3288255  -3262810  -3231080  -3432736  -2927830  -3163320  -3197255  -3094470  -3097790  -2787536  -2600690  -2838880  -2930445  -2944820  -2689780  -2153073  -1623240  -1613360  -1693527  -1924440  -2287420  -2990091  -2593240  -1366420  -200873  -65580  -32430  -4972  999000  999000  999000  999000  999000  999000  999000  999000  999000  999000  999000  999000  999000  999000  999000  999000  999000  999000  999000  999000  999000  999000  999000  999000  999000  999000  999000  999000  999000  999000  999000  999000  999000  999000  999000  999000  999000  999000  999000  999000  999000  999000  999000  999000  999000  999000  999000  999000  999000  999000  999000  999000  999000  999000  999000  999000  999000  999000  999000  999000  999000  999000  999000  999000  999000  999000  999000  999000  999000  999000  999000  999000  999000  999000  999000  999000  999000  999000  999000  999000  999000  999000  999000  999000  999000  999000  999000  999000  999000  999000  999000  999000  999000  999000  999000  999000  999000  999000  999000  999000  999000  999000  999000  999000  999000  999000  999000  999000  999000  999000  999000  999000  999000  999000  999000  999000  999000  999000  999000  999000  999000  999000  999000  999000  999000  999000  999000  999000  999000  999000  999000  999000  999000  999000  999000  999000  999000  999000  999000  999000  999000  999000  999000  999000  999000  999000  999000  999000  999000  999000  999000  999000  999000  999000  999000  999000  999000  999000  999000  999000  999000  999000  999000  999000  999000  999000  999000  999000  999000  999000  999000  999000  999000  -1222  -1129  -1256  -1033  -839  999000  999000 
 -3220900  -3323820  -3261690  -3273191  -3339990  -3296120  -3281673  -3334320  -3322410  -3364500  -3378490  -3361350  -3244209  -3236460  -3214040  -3229918  -3252970  -3234270  -3291436  -3265120  -3215770  -3275345  -3276940  -3258810  -3256000  -3291390  -3262040  -3258645  -3279720  -3311030  -3326127  -3319200  -3308310  -3314918  -3287740  -3257320  -3192273  -3072810  -3073000  -3142482  -3095890  -3032630  -3006209  -2999690  -2930580  -2856691  -2845530  -2801290  -2955336  -3048140  -2022590  -2658827  -2522720  -3007520  -2965209  -2516880  -1460210  -557821  -930612  -1298050  -1079814  -1634850  -2079600  -2204600  -2239260  -2222370  -2328164  -2333360  -2405040  -2470464  -2502390  -2582840  -2582118  -2633060  -2627340  -2675945  -2688500  -2728680  -2698009  -2731230  -2748540  -2770873  -2776830  -2804610  -2856036  -2896010  -2997650  -3128855  -3065430  -2918920  -3202945  -3193060  -3263360  -3146300  -3201840  -3425730  -3401318  -3260370  -3229280  -3185936  -3098830  -3115050  -3214982  -3041870  -3114410  -3169055  -3149920  -2878530  -2686955  -2569700  -2309600  -2151955  -2173380  -2363720  -2930627  -3436180  -1767580  -497755  -165760  -56580  -5500  999000  999000  999000  999000  999000  999000  999000  999000  999000  999000  999000  999000  999000  999000  999000  999000  999000  999000  999000  999000  999000  999000  999000  999000  999000  999000  999000  999000  999000  999000  999000  999000  999000  999000  999000  999000  999000  999000  999000  999000  999000  999000  999000  999000  999000  999000  999000  999000  999000  999000  999000  999000  999000  999000  999000  999000  999000  999000  999000  999000  999000  999000  999000  999000  999000  999000  999000  999000  999000  999000  999000  999000  999000  999000  999000  999000  999000  999000  999000  999000  999000  999000  999000  999000  999000  999000  999000  999000  999000  999000  999000  999000  999000  999000  999000  999000  999000  999000  999000  999000  999000  999000  999000  999000  999000  999000  999000  999000  999000  999000  999000  999000  999000  999000  999000  999000  999000  999000  999000  999000  999000  999000  999000  999000  999000  999000  999000  999000  999000  999000  999000  999000  999000  999000  999000  999000  999000  999000  999000  999000  999000  999000  999000  999000  999000  999000  999000  999000  999000  999000  999000  999000  999000  999000  999000  999000  999000  999000  999000  999000  999000  999000  999000  999000  999000  999000  999000  999000  999000  999000  999000  999000  999000  999000  999000  -1347  -1188  -720  -1034  -851 
 -3309628  -3325336  -3241736  -3153157  -3270455  -3308845  -3320967  -3398364  -3354464  -3384868  -3388655  -3417518  -3351926  -3317255  -3349864  -3325215  -3310218  -3302491  -3334818  -3325391  -3330464  -3310198  -3250545  -3236918  -3263802  -3252709  -3278264  -3300917  -3336218  -3319164  -3315058  -3291536  -3301527  -3334099  -3365218  -3267873  -3132686  -2996991  -3006136  -3180207  -3005818  -2818809  -2919669  -3106536  -2955082  -2776711  -2784700  -2753745  -2834645  -2804827  -2777391  -2989760  -2966818  -2787173  -2450041  -1768627  -929163  -1015736  -1350709  -1635391  -1952521  -1765455  -1894136  -2186190  -2292727  -2294636  -2318554  -2333436  -2423073  -2465810  -2553264  -2621782  -2617793  -2661291  -2675800  -2719355  -2720836  -2745482  -2735496  -2708500  -2757736  -2780455  -2763727  -2756973  -2778901  -2804191  -2834318  -2974058  -2985973  -3009873  -3173702  -3195373  -3213936  -3144810  -3323118  -3550991  -3278950  -3323327  -3266127  -3249818  -3307682  -3249364  -3379306  -3158182  -3170518  -3309694  -3307882  -3028355  -3101455  -3019327  -2538609  -2452504  -2608455  -2727991  -3061364  -3396027  -2766318  -1499818  -297418  -70673  -5750  999000  999000  999000  999000  999000  999000  999000  999000  999000  999000  999000  999000  999000  999000  999000  999000  999000  999000  999000  999000  999000  999000  999000  999000  999000  999000  999000  999000  999000  999000  999000  999000  999000  999000  999000  999000  999000  999000  999000  999000  999000  999000  999000  999000  999000  999000  999000  999000  999000  999000  999000  999000  999000  999000  999000  999000  999000  999000  999000  999000  999000  999000  999000  999000  999000  999000  999000  999000  999000  999000  999000  999000  999000  999000  999000  999000  999000  999000  999000  999000  999000  999000  999000  999000  999000  999000  999000  999000  999000  999000  999000  999000  999000  999000  999000  999000  999000  999000  999000  999000  999000  999000  999000  999000  999000  999000  999000  999000  999000  999000  999000  999000  999000  999000  999000  999000  999000  999000  999000  999000  999000  999000  999000  999000  999000  999000  999000  999000  999000  999000  999000  999000  999000  999000  999000  999000  999000  999000  999000  999000  999000  999000  999000  999000  999000  999000  999000  999000  999000  999000  999000  999000  999000  999000  999000  999000  999000  999000  999000  999000  999000  999000  999000  999000  999000  999000  999000  999000  999000  999000  999000  999000  999000  999000  999000  999000  -1280  999000  999000  -1648 
 -3329509  -3303490  -3299640  -3290391  -3346530  -3386340  -3353309  -3453910  -3361190  -3401364  -3392140  -3427110  -3439382  -3356080  -3338280  -3235509  -3369420  -3442460  -3381918  -3341710  -3341710  -3335091  -3265320  -3275300  -3321509  -3239970  -3327220  -3426400  -3382100  -3301260  -3425773  -3395610  -3418380  -3324055  -3200590  -3183550  -3012227  -3060460  -3058260  -3139191  -2867280  -2936700  -2947118  -3016990  -2896820  -2820000  -2720810  -2703750  -2731218  -2563620  -2544620  -2654518  -2418730  -2189040  -2145691  -1061576  -1216835  -1731800  -1508230  -1912670  -2154264  -2203820  -2118200  -2284727  -2181680  -2335630  -2421764  -2299020  -2285790  -2307136  -2279910  -2327490  -2246627  -2304120  -2360330  -2437091  -2541320  -2617290  -2665655  -2683420  -2688440  -2707236  -2718110  -2690300  -2679091  -2702630  -2714610  -2715364  -2777340  -3122110  -3093555  -3042230  -2875110  -2952355  -3496610  -3509900  -3476036  -3380340  -3227390  -3365618  -3348510  -3311310  -3428555  -3310580  -3248610  -3347600  -3307220  -3029250  -3152273  -2856520  -2984270  -3047482  -2921310  -2949510  -3129418  -2878630  -3358960  -2122018  -678210  -95106  999000  999000  999000  999000  999000  999000  999000  999000  999000  999000  999000  999000  999000  999000  999000  999000  999000  999000  999000  999000  999000  999000  999000  999000  999000  999000  999000  999000  999000  999000  999000  999000  999000  999000  999000  999000  999000  999000  999000  999000  999000  999000  999000  999000  999000  999000  999000  999000  999000  999000  999000  999000  999000  999000  999000  999000  999000  999000  999000  999000  999000  999000  999000  999000  999000  999000  999000  999000  999000  999000  999000  999000  999000  999000  999000  999000  999000  999000  999000  999000  999000  999000  999000  999000  999000  999000  999000  999000  999000  999000  999000  999000  999000  999000  999000  999000  999000  999000  999000  999000  999000  999000  999000  999000  999000  999000  999000  999000  999000  999000  999000  999000  999000  999000  999000  999000  999000  999000  999000  999000  999000  999000  999000  999000  999000  999000  999000  999000  999000  999000  999000  999000  999000  999000  999000  999000  999000  999000  999000  999000  999000  999000  999000  999000  999000  999000  999000  999000  999000  999000  999000  999000  999000  999000  999000  999000  999000  999000  999000  999000  999000  999000  999000  999000  999000  999000  999000  999000  999000  999000  999000  999000  999000  999000  999000  999000  999000  -1500  -1141  -1072  -1219 
 -3319527  -3323910  -3376190  -3401355  -3529000  -3441180  -3446464  -3483800  -3414820  -3410200  -3379640  -3392490  -3397209  -3377310  -3400630  -3415300  -3454770  -3561320  -3492873  -3356790  -3386110  -3434591  -3467050  -3481350  -3475927  -3392280  -3560420  -3560845  -3541020  -3394780  -3452227  -3336100  -3366380  -3215091  -3057100  -3015360  -2924600  -3141030  -3047060  -2987427  -2940430  -2940090  -2858691  -2866950  -2807210  -2712709  -2584730  -2591930  -2510073  -2367370  -2366890  -2250318  -1202620  -1771080  -2075700  -1358010  -1728560  -2075082  -2072230  -1914080  -2053118  -2012730  -1961080  -1976036  -1945630  -1948680  -1993355  -1988320  -2026580  -2130173  -2207330  -2235940  -2250755  -2317570  -2411870  -2500591  -2536910  -2498240  -2468700  -2571730  -2554140  -2538427  -2544130  -2564990  -2593755  -2623870  -2677570  -2770764  -3051890  -3158740  -3106018  -3195580  -3018020  -3148300  -3238730  -3479620  -3499900  -3424010  -3244480  -3557800  -3394660  -3305140  -3343727  -3411430  -3443980  -3265045  -3216320  -3158140  -3154064  -3118050  -2992660  -3019727  -3038200  -3130510  -3067045  -3019450  -3566610  -2860727  -1165320  -251806  -19418  -3083  999000  999000  999000  999000  999000  999000  999000  999000  999000  999000  999000  999000  999000  999000  999000  999000  999000  999000  999000  999000  999000  999000  999000  999000  999000  999000  999000  999000  999000  999000  999000  999000  999000  999000  999000  999000  999000  999000  999000  999000  999000  999000  999000  999000  999000  999000  999000  999000  999000  999000  999000  999000  999000  999000  999000  999000  999000  999000  999000  999000  999000  999000  999000  999000  999000  999000  999000  999000  999000  999000  999000  999000  999000  999000  999000  999000  999000  999000  999000  999000  999000  999000  999000  999000  999000  999000  999000  999000  999000  999000  999000  999000  999000  999000  999000  999000  999000  999000  999000  999000  999000  999000  999000  999000  999000  999000  999000  999000  999000  999000  999000  999000  999000  999000  999000  999000  999000  999000  999000  999000  999000  999000  999000  999000  999000  999000  999000  999000  999000  999000  999000  999000  999000  999000  999000  999000  999000  999000  999000  999000  999000  999000  999000  999000  999000  999000  999000  999000  999000  999000  999000  999000  999000  999000  999000  999000  999000  999000  999000  999000  999000  999000  999000  999000  999000  999000  999000  999000  999000  999000  999000  999000  999000  999000  999000  999000  999000  999000  -1271 
 -3332727  -3319991  -3430655  -3497322  -3541118  -3494318  -3479264  -3470391  -3377909  -3450413  -3411745  -3344964  -3396050  -3404627  -3325709  -3344901  -3480255  -3466818  -3398537  -3341236  -3452464  -3246777  -3341973  -3443618  -3272636  -3199345  -3394082  -3340198  -3326300  -3311973  -3416215  -3378491  -3274882  -3239587  -3190655  -3205491  -3057802  -3092318  -2957655  -2891595  -2884273  -2799327  -2787107  -2714627  -2720873  -2630909  -2561264  -2457909  -2395380  -2329791  -2262600  -1726066  -1997555  -2096009  -2035471  -1831600  -1753600  -1774818  -1919218  -1932273  -2056413  -2136909  -2204164  -2201942  -2291882  -2267218  -2310248  -2346936  -2258973  -2303124  -2407318  -2377300  -2420653  -2455936  -2571273  -2569033  -2552391  -2530373  -2528157  -2553545  -2615073  -2670934  -2682436  -2695745  -2745256  -2791573  -2829727  -2671777  -3329973  -3316355  -3110901  -3154291  -3124891  -3018421  -3228782  -3505545  -3533810  -3437327  -3334855  -3339215  -3302873  -3335209  -3395537  -3327136  -3348809  -3179033  -3473473  -3498464  -3399777  -3425436  -2959636  -2975421  -3135209  -3054927  -3097793  -3125473  -3598327  -3619851  -2015709  -654100  -38281  -15452  -34179  -2225  999000  999000  999000  999000  999000  999000  999000  999000  999000  999000  999000  999000  999000  999000  999000  999000  999000  999000  999000  999000  999000  999000  999000  999000  999000  999000  999000  999000  999000  999000  999000  999000  999000  999000  999000  999000  999000  999000  999000  999000  999000  999000  999000  999000  999000  999000  999000  999000  999000  999000  999000  999000  999000  999000  999000  999000  999000  999000  999000  999000  999000  999000  999000  999000  999000  999000  999000  999000  999000  999000  999000  999000  999000  999000  999000  999000  999000  999000  999000  999000  999000  999000  999000  999000  999000  999000  999000  999000  999000  999000  999000  999000  999000  999000  999000  999000  999000  999000  999000  999000  999000  999000  999000  999000  999000  999000  999000  999000  999000  999000  999000  999000  999000  999000  999000  999000  999000  999000  999000  999000  999000  999000  999000  999000  999000  999000  999000  999000  999000  999000  999000  999000  999000  999000  999000  999000  999000  999000  999000  999000  999000  999000  999000  999000  999000  999000  999000  999000  999000  999000  999000  999000  999000  999000  999000  999000  999000  999000  999000  999000  999000  999000  999000  999000  999000  999000  999000  999000  999000  999000  999000  999000  999000  999000  999000  999000  -923 
 -3461827  -3514760  -3518220  -3524018  -3558180  -3562000  -3544745  -3452450  -3473850  -3500418  -3368210  -3385550  -3477027  -3222790  -2809590  -3206882  -3183270  -3197020  -3074145  -2960840  -3472380  -3280218  -3314730  -3213230  -3257545  -3285230  -3275230  -3362927  -3276960  -3207030  -3182345  -3197440  -3127050  -3251882  -3138990  -3027020  -2921164  -2865020  -2813960  -2829427  -2816940  -2765950  -2644036  -2586970  -2605850  -2535845  -2384850  -2347920  -2285473  -2297940  -2053590  -2060273  -2059360  -1953120  -1917818  -1924380  -1937380  -2016827  -1990070  -1912470  -2126136  -2310480  -2347750  -2353164  -2353370  -2309620  -2349136  -2402210  -2390240  -2460245  -2517000  -2525650  -2553282  -2566790  -2613280  -2668073  -2652650  -2674630  -2732445  -2691860  -2686420  -2733245  -2727260  -2765920  -2802073  -2817660  -2764550  -2697755  -2870450  -3172260  -3022600  -2990140  -3125650  -3361036  -3310300  -3582230  -3524809  -3460620  -3442070  -3421936  -3441150  -3376490  -3454064  -3260820  -3188570  -3238364  -3065730  -3064390  -3249291  -3656120  -3096170  -2987291  -3124920  -3075460  -3085618  -3046200  -3288860  -3603527  -3122040  -1632160  -194036  -218180  -323240  -179591  -48940  -15516  999000  999000  999000  999000  999000  999000  999000  999000  999000  999000  999000  999000  999000  999000  999000  999000  999000  999000  999000  999000  999000  999000  999000  999000  999000  999000  999000  999000  999000  999000  999000  999000  999000  999000  999000  999000  999000  999000  999000  999000  999000  999000  999000  999000  999000  999000  999000  999000  999000  999000  999000  999000  999000  999000  999000  999000  999000  999000  999000  999000  999000  999000  999000  999000  999000  999000  999000  999000  999000  999000  999000  999000  999000  999000  999000  999000  999000  999000  999000  999000  999000  999000  999000  999000  999000  999000  999000  999000  999000  999000  999000  999000  999000  999000  999000  999000  999000  999000  999000  999000  999000  999000  999000  999000  999000  999000  999000  999000  999000  999000  999000  999000  999000  999000  999000  999000  999000  999000  999000  999000  999000  999000  999000  999000  999000  999000  999000  999000  999000  999000  999000  999000  999000  999000  999000  999000  999000  999000  999000  999000  999000  999000  999000  999000  999000  999000  999000  999000  999000  999000  999000  999000  999000  999000  999000  999000  999000  999000  999000  999000  999000  999000  999000  999000  999000  999000  999000  999000  999000  999000  999000  999000  999000  999000  -667 
 -3531273  -3634620  -3657960  -3530300  -3457980  -3499880  -3487036  -3473600  -3490730  -3444464  -3342650  -3238130  -3248636  -3237520  -3131220  -3244882  -3133800  -3102910  -2973373  -3148750  -3515080  -3324382  -3125890  -3002480  -2716782  -2948840  -3105730  -3157391  -3163940  -3086160  -3089591  -3210650  -3193930  -3051645  -3071220  -2854260  -2622045  -2685630  -2844300  -2671609  -2498040  -2679870  -2532873  -2439240  -2368340  -2315191  -2342430  -2377470  -2293545  -1877424  -2023340  -2194164  -2132610  -1828330  -1983191  -2008400  -1744510  -1529118  -1626360  -1844870  -2040982  -2128270  -2210220  -2260864  -2329920  -2353690  -2416073  -2380090  -2404280  -2409309  -2453490  -2492490  -2538418  -2590050  -2683270  -2695855  -2711530  -2714080  -2711073  -2675970  -2682590  -2762918  -2748760  -2768460  -2746736  -2785690  -2731540  -2981036  -2537280  -2948100  -2910545  -2998690  -3179260  -3172600  -3167600  -3453570  -3470018  -3445080  -3464700  -3467400  -3475520  -3365630  -3446000  -3289360  -3253620  -3377745  -3320370  -3314580  -3326155  -3702370  -3089650  -2855627  -3107830  -3111630  -3111082  -3126260  -3060360  -3594064  -3296420  -2098140  -892827  -707040  -597500  -551736  -432500  -64170  -3963  999000  999000  999000  999000  999000  999000  999000  999000  999000  999000  999000  999000  999000  999000  999000  999000  999000  999000  999000  999000  999000  999000  999000  999000  999000  999000  999000  999000  999000  999000  999000  999000  999000  999000  999000  999000  999000  999000  999000  999000  999000  999000  999000  999000  999000  999000  999000  999000  999000  999000  999000  999000  999000  999000  999000  999000  999000  999000  999000  999000  999000  999000  999000  999000  999000  999000  999000  999000  999000  999000  999000  999000  999000  999000  999000  999000  999000  999000  999000  999000  999000  999000  999000  999000  999000  999000  999000  999000  999000  999000  999000  999000  999000  999000  999000  999000  999000  999000  999000  999000  999000  999000  999000  999000  999000  999000  999000  999000  999000  999000  999000  999000  999000  999000  999000  999000  999000  999000  999000  999000  999000  999000  999000  999000  999000  999000  999000  999000  999000  999000  999000  999000  999000  999000  999000  999000  999000  999000  999000  999000  999000  999000  999000  999000  999000  999000  999000  999000  999000  999000  999000  999000  999000  999000  999000  999000  999000  999000  999000  999000  999000  999000  999000  999000  999000  999000  999000  999000  999000  999000  999000  999000  999000  999000 
 -3347744  -3363200  -3330027  -3446314  -3258255  -3328818  -3388711  -3483064  -3453018  -3478463  -3450109  -3313836  -3398545  -3309545  -3080164  -3022025  -3023945  -3050691  -3094777  -3215391  -3052409  -3130661  -3142800  -3349282  -3045653  -3122755  -3009191  -3217504  -3074209  -2919955  -2945975  -2952364  -3205482  -2748017  -2824545  -2822227  -2831653  -2693745  -2759564  -2846132  -2758191  -2656673  -2530769  -2500618  -2451409  -2414157  -2452564  -2485927  -2230496  -1663909  -2106600  -2141901  -2184045  -2218845  -2092967  -2196436  -1958373  -1689810  -1712191  -1815800  -1929083  -2040155  -2124655  -2226124  -2362036  -2389045  -2328529  -2407336  -2504127  -2522281  -2534791  -2570982  -2605909  -2618300  -2611109  -2665289  -2688473  -2718455  -2705182  -2688109  -2698700  -2734471  -2761064  -2780255  -2718405  -2778236  -2844845  -2390959  -2411700  -2907700  -2878678  -2958182  -3116555  -3205595  -3115391  -3366409  -3470165  -3459782  -3467991  -3436331  -3364618  -3363027  -3485091  -3323055  -3399736  -3145876  -3169336  -3297855  -3155174  -3386882  -3777336  -2886826  -3109064  -3098145  -3040917  -2996136  -2824373  -3150124  -2959782  -2263900  -1189793  -1068627  -831718  -650471  -774545  -420527  -11846  -810  999000  999000  999000  999000  999000  999000  999000  999000  999000  999000  999000  999000  999000  999000  999000  999000  999000  999000  999000  999000  999000  999000  999000  999000  999000  999000  999000  999000  999000  999000  999000  999000  999000  999000  999000  999000  999000  999000  999000  999000  999000  999000  999000  999000  999000  999000  999000  999000  999000  999000  999000  999000  999000  999000  999000  999000  999000  999000  999000  999000  999000  999000  999000  999000  999000  999000  999000  999000  999000  999000  999000  999000  999000  999000  999000  999000  999000  999000  999000  999000  999000  999000  999000  999000  999000  999000  999000  999000  999000  999000  999000  999000  999000  999000  999000  999000  999000  999000  999000  999000  999000  999000  999000  999000  999000  999000  999000  999000  999000  999000  999000  999000  999000  999000  999000  999000  999000  999000  999000  999000  999000  999000  999000  999000  999000  999000  999000  999000  999000  999000  999000  999000  999000  999000  999000  999000  999000  999000  999000  999000  999000  999000  999000  999000  999000  999000  999000  999000  999000  999000  999000  999000  999000  999000  999000  999000  999000  999000  999000  999000  999000  999000  999000  999000  999000  999000  999000  999000  999000  999000  999000  999000  999000 
 -3515373  -3636790  -3521420  -3602100  -3426910  -3482120  -3428473  -3438500  -3454880  -3470455  -3333150  -3212380  -3108355  -2962970  -3012140  -2921073  -2931020  -3064010  -3108227  -3059540  -3147440  -3263055  -3095210  -3374890  -3141000  -3150710  -3160070  -3080527  -3101430  -3032510  -3081245  -3133740  -3017740  -2977827  -2870140  -2782580  -2733000  -2762590  -2840640  -2795882  -2689820  -2566860  -2452464  -2383630  -2472740  -2515882  -2492020  -2320110  -1325954  -2207400  -2063190  -2288255  -2085360  -2003430  -2039736  -2284850  -1772140  -1872491  -1971430  -1945830  -1832709  -1851320  -1941780  -2200409  -2414940  -2558420  -2470191  -2480960  -2523880  -2534027  -2516460  -2609780  -2634845  -2651580  -2651490  -2635182  -2663830  -2703260  -2715155  -2730650  -2726180  -2760027  -2691790  -2794830  -2824355  -2670760  -2866060  -2915845  -2728250  -2819990  -2802009  -2936340  -3093190  -3286382  -2930280  -3138960  -3288664  -3318080  -3296650  -3310627  -3400990  -3242310  -3506845  -3336220  -3153380  -3150345  -3291330  -3317380  -3082600  -3124440  -3603660  -3052745  -3022580  -3045800  -3157000  -3083270  -2914170  -2947855  -3066950  -3098960  -2161682  -1669720  -1021010  -865955  -868490  -688020  -164129  999000  999000  999000  999000  999000  999000  999000  999000  999000  999000  999000  999000  999000  999000  999000  999000  999000  999000  999000  999000  999000  999000  999000  999000  999000  999000  999000  999000  999000  999000  999000  999000  999000  999000  999000  999000  999000  999000  999000  999000  999000  999000  999000  999000  999000  999000  999000  999000  999000  999000  999000  999000  999000  999000  999000  999000  999000  999000  999000  999000  999000  999000  999000  999000  999000  999000  999000  999000  999000  999000  999000  999000  999000  999000  999000  999000  999000  999000  999000  999000  999000  999000  999000  999000  999000  999000  999000  999000  999000  999000  999000  999000  999000  999000  999000  999000  999000  999000  999000  999000  999000  999000  999000  999000  999000  999000  999000  999000  999000  999000  999000  999000  999000  999000  999000  999000  999000  999000  999000  999000  999000  999000  999000  999000  999000  999000  999000  999000  999000  999000  999000  999000  999000  999000  999000  999000  999000  999000  999000  999000  999000  999000  999000  999000  999000  999000  999000  999000  999000  999000  999000  999000  999000  999000  999000  999000  999000  999000  999000  999000  999000  999000  999000  999000  999000  999000  999000  999000  999000  999000  999000  999000  999000  999000 
 -3375055  -3173830  -3054200  -3160636  -3114350  -3244430  -3269636  -3179360  -3082470  -3121709  -3179300  -3114900  -3039764  -2886790  -2898170  -2792345  -2899360  -2898150  -2827036  -2988300  -2883920  -3133955  -2818550  -3021690  -2894864  -2979470  -2804730  -2862164  -2961610  -2816210  -2816864  -2802030  -2867950  -2724191  -2696410  -2658870  -2649273  -2503840  -2528480  -2620227  -2565290  -2495560  -2457764  -2477550  -2505100  -2500527  -2377800  -2075030  -2088618  -2330170  -2287780  -2306255  -2024220  -2274480  -2068891  -2076790  -1916230  -1961282  -1967650  -1801280  -1554318  -1687140  -1875510  -2396264  -2492250  -2504870  -2526091  -2594150  -2646730  -2596982  -2637730  -2653100  -2617055  -2607670  -2670570  -2630155  -2654820  -2639990  -2665127  -2658800  -2725060  -2780473  -2815180  -2759160  -2745355  -2880400  -2805620  -2618045  -2571030  -2785260  -2821800  -2922350  -3003630  -3278364  -3039130  -3203180  -3235727  -3208150  -3286930  -3397936  -3472410  -3176800  -3587282  -3238900  -3218340  -3174364  -3258820  -3247450  -3079609  -2833590  -3646450  -3122445  -3241390  -3277130  -3128627  -2964250  -3063490  -3281245  -2266060  -2932730  -3112545  -2498220  -991980  -862645  -555430  -750420  -407888  -33295  -5754  -1500  999000  999000  999000  999000  999000  999000  999000  999000  999000  999000  999000  999000  999000  999000  999000  999000  999000  999000  999000  999000  999000  999000  999000  999000  999000  999000  999000  999000  999000  999000  999000  999000  999000  999000  999000  999000  999000  999000  999000  999000  999000  999000  999000  999000  999000  999000  999000  999000  999000  999000  999000  999000  999000  999000  999000  999000  999000  999000  999000  999000  999000  999000  999000  999000  999000  999000  999000  999000  999000  999000  999000  999000  999000  999000  999000  999000  999000  999000  999000  999000  999000  999000  999000  999000  999000  999000  999000  999000  999000  999000  999000  999000  999000  999000  999000  999000  999000  999000  999000  999000  999000  999000  999000  999000  999000  999000  999000  999000  999000  999000  999000  999000  999000  999000  999000  999000  999000  999000  999000  999000  999000  999000  999000  999000  999000  999000  999000  999000  999000  999000  999000  999000  999000  999000  999000  999000  999000  999000  999000  999000  999000  999000  999000  999000  999000  999000  999000  999000  999000  999000  999000  999000  999000  999000  999000  999000  999000  999000  999000  999000  999000  999000  999000  999000  999000  999000  999000  -882  -1000  -1109  -1449 
 -3196504  -2967882  -3121991  -3109000  -2972091  -3003100  -3309157  -3121636  -3118627  -2880769  -3116291  -2927000  -2995496  -2876018  -2647927  -2681058  -2798445  -2586291  -2598851  -2664845  -2783755  -2817215  -2700173  -2742973  -2772802  -2824945  -2784609  -2785736  -2848236  -2840873  -2845273  -2824473  -2771591  -2625157  -2596300  -2611336  -2640017  -2627391  -2592200  -2623628  -2589227  -2413791  -2493793  -2573391  -2567173  -2379306  -2311527  -2075182  -2312653  -2064400  -2096482  -2022562  -1905164  -2051873  -2118876  -2204400  -2054400  -1946364  -1894509  -1860127  -1708587  -1862609  -2128291  -2319860  -2470318  -2522391  -2600140  -2574282  -2561936  -2542554  -2568527  -2540691  -2513000  -2487864  -2560718  -2576678  -2604664  -2657109  -2681521  -2748982  -2843509  -2820818  -2778136  -2850491  -2991446  -2786473  -2720345  -2676942  -2717618  -2966364  -2877893  -2784973  -2851627  -2995050  -2893564  -3047818  -3295992  -3288400  -3404000  -3433975  -3463464  -3294600  -3538876  -3194673  -3117600  -3204355  -3241864  -3281227  -3208537  -2531582  -3054209  -3270083  -3046036  -2929955  -2965165  -2931582  -2603809  -3923099  -2622273  -2993909  -3092099  -3021955  -1765427  -815512  -359027  -535818  -872364  -104336  -16475  999000  999000  999000  999000  999000  999000  999000  999000  999000  999000  999000  999000  999000  999000  999000  999000  999000  999000  999000  999000  999000  999000  999000  999000  999000  999000  999000  999000  999000  999000  999000  999000  999000  999000  999000  999000  999000  999000  999000  999000  999000  999000  999000  999000  999000  999000  999000  999000  999000  999000  999000  999000  999000  999000  999000  999000  999000  999000  999000  999000  999000  999000  999000  999000  999000  999000  999000  999000  999000  999000  999000  999000  999000  999000  999000  999000  999000  999000  999000  999000  999000  999000  999000  999000  999000  999000  999000  999000  999000  999000  999000  999000  999000  999000  999000  999000  999000  999000  999000  999000  999000  999000  999000  999000  999000  999000  999000  999000  999000  999000  999000  999000  999000  999000  999000  999000  999000  999000  999000  999000  999000  999000  999000  999000  999000  999000  999000  999000  999000  999000  999000  999000  999000  999000  999000  999000  999000  999000  999000  999000  999000  999000  999000  999000  999000  999000  999000  999000  999000  999000  999000  999000  999000  999000  999000  999000  999000  999000  999000  999000  999000  999000  999000  999000  999000  999000  999000  999000  -1098  -1407  -2273  -3165 
 -3015618  -3172680  -2894830  -2937827  -2912060  -2936080  -3385745  -2936100  -2898710  -2816418  -2730550  -2824170  -2878245  -2994840  -3188550  -3082055  -2998600  -3091880  -2970191  -2846420  -2876030  -2812227  -2606460  -2603540  -2711918  -2628990  -2640830  -2639191  -2651650  -2781950  -2842109  -2736180  -2744240  -2669627  -2724910  -2716340  -2681564  -2565350  -2607430  -2575936  -2570500  -2546550  -2465245  -2256270  -2193770  -2071973  -1993900  -2046650  -2003745  -2034670  -2149700  -2273373  -2261240  -2173680  -2165727  -2185380  -2000710  -2033455  -2074680  -2050070  -2057100  -1990760  -2206160  -2177245  -2282780  -2329550  -2429845  -2494510  -2490520  -2506645  -2487630  -2413620  -2369755  -2472210  -2562940  -2716109  -2717720  -2786170  -2844436  -2784640  -2721440  -2792673  -2816910  -2834740  -2819464  -2815110  -2896950  -2953618  -2848270  -2861060  -2901527  -2878990  -3070340  -3449973  -2884620  -3008230  -3296318  -3264670  -3290690  -3372282  -3498430  -3310890  -3445727  -3340830  -3176730  -2851482  -3011360  -3053070  -2639282  -2317870  -2634870  -3110964  -2859000  -2941810  -3013955  -3054450  -2738070  -3112273  -2789220  -3218550  -3520864  -3201840  -2539450  -1751573  -1013990  -326570  -809164  -352520  -30958  999000  999000  999000  999000  999000  999000  999000  999000  999000  999000  999000  999000  999000  999000  999000  999000  999000  999000  999000  999000  999000  999000  999000  999000  999000  999000  999000  999000  999000  999000  999000  999000  999000  999000  999000  999000  999000  999000  999000  999000  999000  999000  999000  999000  999000  999000  999000  999000  999000  999000  999000  999000  999000  999000  999000  999000  999000  999000  999000  999000  999000  999000  999000  999000  999000  999000  999000  999000  999000  999000  999000  999000  999000  999000  999000  999000  999000  999000  999000  999000  999000  999000  999000  999000  999000  999000  999000  999000  999000  999000  999000  999000  999000  999000  999000  999000  999000  999000  999000  999000  999000  999000  999000  999000  999000  999000  999000  999000  999000  999000  999000  999000  999000  999000  999000  999000  999000  999000  999000  999000  999000  999000  999000  999000  999000  999000  999000  999000  999000  999000  999000  999000  999000  999000  999000  999000  999000  999000  999000  999000  999000  999000  999000  999000  999000  999000  999000  999000  999000  999000  999000  999000  999000  999000  999000  999000  999000  999000  999000  999000  999000  999000  999000  999000  999000  999000  999000  -984  -1117  -1833  -3464  -5245 
 -3153682  -3269690  -3022910  -3093555  -2962480  -2909970  -3190964  -3045410  -2847650  -2830173  -2922620  -2999640  -3050082  -3088760  -2630050  -2638900  -2549910  -2624840  -2624655  -2609680  -2620350  -2994018  -2838790  -2777180  -2732736  -2737470  -2697400  -2609555  -2740790  -2649450  -2551400  -2581150  -2623450  -2534745  -2581360  -2579750  -2641191  -2629680  -2534430  -2494000  -2435770  -2355340  -2224336  -2155910  -2217070  -2347455  -2316330  -2369560  -2357745  -2334290  -2337890  -2337700  -2285910  -2331870  -2298227  -2276900  -2225180  -2159164  -2220360  -2215110  -2014764  -2025220  -2006230  -2128464  -2168490  -2101770  -2239855  -2295220  -2373800  -2416400  -2341620  -2351490  -2357364  -2391860  -2607840  -2526964  -2725650  -2777420  -2808118  -2889310  -2746550  -3017545  -3027900  -2847340  -2851073  -2928690  -2964350  -2973145  -2637190  -2905190  -2891764  -2908310  -3033860  -3158164  -2959450  -2961820  -3455109  -3227590  -3426080  -3292182  -3352340  -3206030  -3474627  -3346890  -3228620  -2434527  -2690000  -2633790  -2127500  -2505150  -3074810  -3087755  -3115230  -3069200  -3079582  -2978260  -2876270  -2773564  -3433970  -2714910  -3482091  -3596110  -3268740  -2959573  -1410040  -1423790  -990109  -643920  -88081  999000  999000  999000  999000  999000  999000  999000  999000  999000  999000  999000  999000  999000  999000  999000  999000  999000  999000  999000  999000  999000  999000  999000  999000  999000  999000  999000  999000  999000  999000  999000  999000  999000  999000  999000  999000  999000  999000  999000  999000  999000  999000  999000  999000  999000  999000  999000  999000  999000  999000  999000  999000  999000  999000  999000  999000  999000  999000  999000  999000  999000  999000  999000  999000  999000  999000  999000  999000  999000  999000  999000  999000  999000  999000  999000  999000  999000  999000  999000  999000  999000  999000  999000  999000  999000  999000  999000  999000  999000  999000  999000  999000  999000  999000  999000  999000  999000  999000  999000  999000  999000  999000  999000  999000  999000  999000  999000  999000  999000  999000  999000  999000  999000  999000  999000  999000  999000  999000  999000  999000  999000  999000  999000  999000  999000  999000  999000  999000  999000  999000  999000  999000  999000  999000  999000  999000  999000  999000  999000  999000  999000  999000  999000  999000  999000  999000  999000  999000  999000  999000  999000  999000  999000  999000  999000  999000  999000  999000  999000  999000  999000  999000  999000  999000  999000  999000  999000  -1071  -1773  -3327  -5236  -7200 
 -3058430  -2984291  -2940800  -2739868  -3064136  -3271391  -3801893  -3607600  -3176082  -2823397  -2764509  -2620382  -2752017  -2928236  -2926882  -2904124  -2913700  -2796973  -2796215  -2787973  -2761073  -2804587  -2799955  -2653200  -2573058  -2583518  -2620582  -2740388  -2383118  -2534473  -2603983  -2555500  -2490827  -2522331  -2467418  -2474836  -2407876  -2371845  -2345609  -2357256  -2379873  -2414136  -2457926  -2487500  -2493545  -2552818  -2472945  -2533273  -2442455  -2445927  -2417745  -2404372  -2283273  -2306218  -2283562  -2235818  -2253364  -2190769  -2168009  -1934545  -1872223  -1705209  -1667936  -1799041  -1801927  -1890964  -2022975  -2114209  -2249173  -2287860  -2315582  -2216564  -2316372  -2431518  -2597555  -2384405  -2655936  -2861118  -2861802  -3067645  -2917418  -2921306  -2829536  -2822700  -2942174  -2950391  -2995509  -2994132  -2870055  -3399927  -3009190  -3054745  -3080855  -3124950  -3052773  -3292855  -3190405  -3224245  -3328809  -3181331  -3361255  -3321573  -3433116  -3111918  -3139182  -2258041  -2500418  -2266891  -2114967  -2239018  -2708800  -3064810  -3150664  -3040709  -3082331  -3036982  -2860109  -2600736  -3574691  -2756545  -3161793  -3404400  -3428827  -3705595  -2605364  -1479727  -1085479  -648836  -144309  -12820  -77  999000  999000  999000  999000  999000  999000  999000  999000  999000  999000  999000  999000  999000  999000  999000  999000  999000  999000  999000  999000  999000  999000  999000  999000  999000  999000  999000  999000  999000  999000  999000  999000  999000  999000  999000  999000  999000  999000  999000  999000  999000  999000  999000  999000  999000  999000  999000  999000  999000  999000  999000  999000  999000  999000  999000  999000  999000  999000  999000  999000  999000  999000  999000  999000  999000  999000  999000  999000  999000  999000  999000  999000  999000  999000  999000  999000  999000  999000  999000  999000  999000  999000  999000  999000  999000  999000  999000  999000  999000  999000  999000  999000  999000  999000  999000  999000  999000  999000  999000  999000  999000  999000  999000  999000  999000  999000  999000  999000  999000  999000  999000  999000  999000  999000  999000  999000  999000  999000  999000  999000  999000  999000  999000  999000  999000  999000  999000  999000  999000  999000  999000  999000  999000  999000  999000  999000  999000  999000  999000  999000  999000  999000  999000  999000  999000  999000  999000  999000  999000  999000  999000  999000  999000  999000  999000  999000  999000  999000  999000  999000  999000  999000  999000  999000  -1000  -1860  -3860  -5835  -7909  -9851 
 -3350218  -3271750  -3062980  -2954945  -3365880  -3532030  -3338800  -3401890  -2721490  -2764109  -2982210  -2810890  -2881500  -2911520  -2967010  -3035855  -3011030  -3030250  -3120464  -2960750  -2957330  -2921118  -3044860  -2892350  -2781036  -2776310  -2728420  -2770573  -2938890  -2810760  -2653545  -2602460  -2538380  -2672964  -2525220  -2539990  -2627982  -2610510  -2536150  -2626391  -2604080  -2536570  -2495673  -2485680  -2508000  -2451191  -2495380  -2459840  -2389682  -2397990  -2408880  -2426955  -2350960  -2369890  -2254500  -2137150  -2244000  -2083745  -2010550  -1987760  -1935718  -1684410  -1647460  -1847909  -1863510  -1958670  -2103300  -2160750  -2205340  -2150200  -1957450  -1722760  -1963836  -2528770  -2728340  -3312591  -3257190  -3034770  -2871973  -2787370  -2846450  -2949600  -2929340  -2940280  -3032655  -2982850  -2985830  -3000327  -3129720  -3418980  -3088382  -3079410  -3148830  -3272318  -3340770  -3170330  -3099282  -3198360  -3274530  -3160036  -3319290  -3357090  -3411882  -3163370  -2977960  -2070764  -2187300  -2167030  -1843582  -2291010  -2738550  -3072182  -3031870  -3046450  -2991909  -3097840  -2880440  -2489782  -3158200  -3415780  -2816118  -3299950  -3424850  -3540118  -3377810  -2348370  -722518  -176320  -120820  -55936  -15158  -6825  -4797  -1731  999000  999000  999000  999000  999000  999000  999000  999000  999000  999000  999000  999000  999000  999000  999000  999000  999000  999000  999000  999000  999000  999000  999000  999000  999000  999000  999000  999000  999000  999000  999000  999000  999000  999000  999000  999000  999000  999000  999000  999000  999000  999000  999000  999000  999000  999000  999000  999000  999000  999000  999000  999000  999000  999000  999000  999000  999000  999000  999000  999000  999000  999000  999000  999000  999000  999000  999000  999000  999000  999000  999000  999000  999000  999000  999000  999000  999000  999000  999000  999000  999000  999000  999000  999000  999000  999000  999000  999000  999000  999000  999000  999000  999000  999000  999000  999000  999000  999000  999000  999000  999000  999000  999000  999000  999000  999000  999000  999000  999000  999000  999000  999000  999000  999000  999000  999000  999000  999000  999000  999000  999000  999000  999000  999000  999000  999000  999000  999000  999000  999000  999000  999000  999000  999000  999000  999000  999000  999000  999000  999000  999000  999000  999000  999000  999000  999000  999000  999000  999000  999000  999000  999000  999000  999000  999000  999000  999000  999000  999000  999000  999000  -1438  -3391  -6045  -8582  -10882  -12809 
 -3380909  -3363840  -3417250  -3293227  -3238760  -3239250  -3029245  -2891750  -3208760  -3137100  -3204360  -2979910  -2940855  -3180580  -3217020  -3181227  -3105220  -3114480  -3136200  -3126440  -3204520  -3032482  -3161960  -2864980  -2919182  -2874550  -2903120  -2824845  -2755920  -2813670  -2757418  -2706300  -2685870  -2635464  -2616930  -2626070  -2654691  -2633150  -2673910  -2719591  -2667700  -2625200  -2697373  -2638140  -2655510  -2627318  -2568390  -2506270  -2514364  -2496500  -2433470  -2403336  -2390570  -2387290  -2358709  -2346150  -2292510  -2073691  -2097660  -2118280  -2054273  -1932740  -1807240  -1905391  -1900730  -1737990  -1778145  -1975430  -2059210  -1879200  -1614890  -1157860  -1790636  -2232110  -2218230  -2532082  -3206800  -2752040  -2666755  -2759970  -2838920  -2878200  -2795060  -2898170  -2965836  -3030800  -3047180  -3048718  -3063130  -3233520  -3107491  -2953560  -2933370  -3285100  -3363910  -2917590  -3099818  -3153720  -3190260  -3197927  -3072400  -3133440  -3312145  -3214100  -3210380  -1969045  -2040440  -2186830  -2355336  -2620150  -2942370  -3060991  -2979660  -2880330  -2748818  -3136390  -3042720  -2752600  -2763940  -4401530  -2423500  -2865980  -3364520  -3578800  -3596230  -2616090  -1820445  -451520  -411410  -302455  -75950  -23450  -22373  -9613  -2222  999000  999000  999000  999000  999000  999000  999000  999000  999000  999000  999000  999000  999000  999000  999000  999000  999000  999000  999000  999000  999000  999000  999000  999000  999000  999000  999000  999000  999000  999000  999000  999000  999000  999000  999000  999000  999000  999000  999000  999000  999000  999000  999000  999000  999000  999000  999000  999000  999000  999000  999000  999000  999000  999000  999000  999000  999000  999000  999000  999000  999000  999000  999000  999000  999000  999000  999000  999000  999000  999000  999000  999000  999000  999000  999000  999000  999000  999000  999000  999000  999000  999000  999000  999000  999000  999000  999000  999000  999000  999000  999000  999000  999000  999000  999000  999000  999000  999000  999000  999000  999000  999000  999000  999000  999000  999000  999000  999000  999000  999000  999000  999000  999000  999000  999000  999000  999000  999000  999000  999000  999000  999000  999000  999000  999000  999000  999000  999000  999000  999000  999000  999000  999000  999000  999000  999000  999000  999000  999000  999000  999000  999000  999000  999000  999000  999000  999000  999000  999000  999000  999000  999000  999000  999000  999000  999000  999000  999000  999000  -1154  -2038  -5064  -8209  -11255  -13973  -16027 
 -3588562  -3381755  -3336882  -3324405  -3274327  -3505455  -3151653  -3262100  -2944727  -3050355  -3203155  -3318982  -3166612  -3299118  -3346873  -3322479  -3103391  -3388482  -3047760  -3522155  -3436491  -3423694  -3204018  -3126491  -3159231  -2994582  -2875800  -2863198  -2842036  -2819191  -2863165  -2835000  -2798491  -2794504  -2750909  -2760855  -2831430  -2711827  -2717564  -2659736  -2690455  -2629127  -2632339  -2600455  -2580645  -2570223  -2507955  -2434418  -2498628  -2496045  -2455855  -2425421  -2317618  -2340936  -2348901  -2275973  -2235127  -2154446  -2099736  -2129991  -2109926  -2171173  -2075755  -2033545  -1846491  -1624355  -1577860  -1690809  -1739364  -1683165  -1353300  -1145009  -1047909  -1456100  -1933582  -2639595  -2773800  -2752100  -2811521  -2839655  -2860209  -2880140  -2890964  -2930582  -2972860  -3042782  -3074655  -2969727  -2954773  -3385345  -3128570  -2867700  -2615373  -2865413  -3799509  -2793455  -2973050  -2911700  -2986145  -3109273  -3073673  -3047418  -3160612  -3027645  -3033073  -1519430  -1728845  -2649655  -2810686  -2774791  -2776764  -2823033  -2881745  -2842527  -3034479  -3082873  -3025400  -2839463  -2447136  -3171973  -3378116  -2524573  -3110091  -3603570  -3650800  -3026936  -2600950  -1628191  -936882  -649802  -440709  -115709  -45446  -37918  -4842  999000  999000  999000  999000  999000  999000  999000  999000  999000  999000  999000  999000  999000  999000  999000  999000  999000  999000  999000  999000  999000  999000  999000  999000  999000  999000  999000  999000  999000  999000  999000  999000  999000  999000  999000  999000  999000  999000  999000  999000  999000  999000  999000  999000  999000  999000  999000  999000  999000  999000  999000  999000  999000  999000  999000  999000  999000  999000  999000  999000  999000  999000  999000  999000  999000  999000  999000  999000  999000  999000  999000  999000  999000  999000  999000  999000  999000  999000  999000  999000  999000  999000  999000  999000  999000  999000  999000  999000  999000  999000  999000  999000  999000  999000  999000  999000  999000  999000  999000  999000  999000  999000  999000  999000  999000  999000  999000  999000  999000  999000  999000  999000  999000  999000  999000  999000  999000  999000  999000  999000  999000  999000  999000  999000  999000  999000  999000  999000  999000  999000  999000  999000  999000  999000  999000  999000  999000  999000  999000  999000  999000  999000  999000  999000  999000  999000  999000  999000  999000  999000  999000  999000  999000  999000  999000  999000  999000  999000  999000  -1500  -3545  -7207  -10959  -14760  -18537  -22091 
 -3402391  -3467090  -3493840  -3456436  -3446390  -3162510  -2852036  -3411560  -3189370  -3475018  -3707120  -3555450  -3493718  -3612320  -3239480  -3162491  -3136420  -3241220  -3619118  -3682870  -3642910  -3274464  -3667980  -3225660  -3129118  -3470120  -3182280  -3145055  -2977310  -2889920  -2931700  -2742180  -2766380  -2851673  -2848980  -2765060  -2733900  -2703560  -2699190  -2651864  -2634890  -2668800  -2635082  -2660850  -2642270  -2597436  -2648770  -2615440  -2639300  -2637460  -2619310  -2531927  -2509620  -2101340  -2039527  -2274490  -2342440  -2238636  -2213140  -2221310  -2225782  -2133850  -2192970  -2138327  -1801480  -1610030  -1574436  -1550280  -1512270  -1585218  -1468040  -1359060  -1267927  -1304980  -1469090  -1989736  -2292270  -2499370  -2721200  -2722520  -2725710  -2749727  -2752080  -2807340  -2922055  -2960710  -3085400  -2889927  -3474380  -3263430  -3066509  -2888090  -2776520  -3052782  -3762320  -2895100  -2835873  -2884750  -2835660  -2832555  -2926400  -2898380  -3347473  -3013230  -3194210  -1669173  -2010810  -2209650  -2591918  -2718710  -2717900  -2686682  -2576470  -2660690  -2856664  -3018740  -2969780  -2803773  -2576610  -2260760  -4178627  -2676330  -2871060  -3530300  -3801940  -3697620  -2990118  -2452610  -1575710  -989309  -1328890  -708260  -149073  -53710  -13908  -2294  999000  999000  999000  999000  999000  999000  999000  999000  999000  999000  999000  999000  999000  999000  999000  999000  999000  999000  999000  999000  999000  999000  999000  999000  999000  999000  999000  999000  999000  999000  999000  999000  999000  999000  999000  999000  999000  999000  999000  999000  999000  999000  999000  999000  999000  999000  999000  999000  999000  999000  999000  999000  999000  999000  999000  999000  999000  999000  999000  999000  999000  999000  999000  999000  999000  999000  999000  999000  999000  999000  999000  999000  999000  999000  999000  999000  999000  999000  999000  999000  999000  999000  999000  999000  999000  999000  999000  999000  999000  999000  999000  999000  999000  999000  999000  999000  999000  999000  999000  999000  999000  999000  999000  999000  999000  999000  999000  999000  999000  999000  999000  999000  999000  999000  999000  999000  999000  999000  999000  999000  999000  999000  999000  999000  999000  999000  999000  999000  999000  999000  999000  999000  999000  999000  999000  999000  999000  999000  999000  999000  999000  999000  999000  999000  999000  999000  999000  999000  999000  999000  999000  999000  999000  999000  999000  999000  999000  999000  -1767  -5164  -9527  -13782  -18709  -25664  -33018 
 -3017527  -3330260  -3300000  -3410418  -3498050  -3566030  -3211373  -3034150  -2999950  -3112700  -3212250  -3345460  -3537109  -3314620  -3266510  -3382082  -3400490  -3400590  -3382591  -3201930  -3461670  -3309218  -3492370  -3089340  -3104818  -3239410  -3276240  -3079455  -3213920  -3259370  -3103991  -3056760  -2995660  -2916264  -3007140  -2926210  -2911555  -2872670  -2901600  -2824164  -2803600  -2693400  -2677645  -2738160  -2753190  -2677600  -2714650  -2757390  -2603382  -2597550  -2596260  -2500718  -2463040  -2409510  -1902900  -1754590  -2171520  -2402436  -2347370  -2246610  -2236473  -2255430  -2235910  -2121627  -1852370  -1750020  -1553609  -1585260  -1704290  -1720064  -1422940  -1419580  -1343500  -1253700  -1552180  -1922055  -2137130  -2426150  -2562936  -2574400  -2571320  -2618082  -2716810  -2874580  -2899136  -2851580  -3032830  -3320473  -3106480  -2959810  -3013127  -2865190  -2949870  -3232518  -3414640  -3303500  -2972045  -2914870  -2955690  -3049936  -3149780  -3192270  -3221555  -2919350  -3175460  -1759727  -1697800  -1966470  -2460445  -2470800  -2337310  -2326191  -2193010  -2360000  -2798336  -2930360  -2857360  -2738864  -2536680  -2008950  -2909000  -3087000  -3043200  -3358255  -3663860  -3777040  -3365036  -2765080  -2298180  -1655127  -1586250  -1302070  -603936  -200320  -38630  -7384  999000  999000  999000  999000  999000  999000  999000  999000  999000  999000  999000  999000  999000  999000  999000  999000  999000  999000  999000  999000  999000  999000  999000  999000  999000  999000  999000  999000  999000  999000  999000  999000  999000  999000  999000  999000  999000  999000  999000  999000  999000  999000  999000  999000  999000  999000  999000  999000  999000  999000  999000  999000  999000  999000  999000  999000  999000  999000  999000  999000  999000  999000  999000  999000  999000  999000  999000  999000  999000  999000  999000  999000  999000  999000  999000  999000  999000  999000  999000  999000  999000  999000  999000  999000  999000  999000  999000  999000  999000  999000  999000  999000  999000  999000  999000  999000  999000  999000  999000  999000  999000  999000  999000  999000  999000  999000  999000  999000  999000  999000  999000  999000  999000  999000  999000  999000  999000  999000  999000  999000  999000  999000  999000  999000  999000  999000  999000  999000  999000  999000  999000  999000  999000  999000  999000  999000  999000  999000  999000  999000  999000  999000  999000  999000  999000  999000  999000  999000  999000  999000  999000  999000  999000  999000  999000  999000  999000  999000  -2232  -6727  -11927  -16445  -23464  -33991  -43100 
 -3294413  -3348827  -3366609  -3443802  -3420609  -3454709  -3501686  -3771055  -3615827  -3487471  -3527655  -3626409  -3570554  -3580664  -3551436  -3481231  -3448700  -3535164  -3595893  -3524427  -3474409  -3365248  -3452682  -3541700  -3091562  -3011282  -3223009  -2951298  -2975582  -3141700  -2964372  -2915682  -2944473  -2857124  -3005882  -2995955  -2977405  -2963673  -2930591  -2756992  -3257100  -3229727  -2939694  -2867055  -2846709  -2775992  -2669155  -2648409  -2601843  -2563945  -2578627  -2488446  -2440509  -2463155  -2547793  -2361809  -2341036  -2316661  -2417536  -2364636  -2344413  -2244782  -2194418  -2187901  -2190673  -2219191  -2276868  -2229018  -2209100  -1964339  -2002391  -1843073  -1743248  -1768873  -1937555  -2053554  -2117009  -2072527  -2197942  -2276773  -2333464  -2411463  -2563118  -2765927  -2865628  -2873318  -3177136  -3178909  -3134136  -3165373  -3194992  -3107682  -2981045  -3160579  -3226709  -3066045  -2719430  -2705845  -2833955  -2900785  -2925309  -2913700  -3035223  -2981518  -3270245  -2428967  -2032936  -1892073  -1903446  -1948009  -1735455  -1615306  -1683136  -2002209  -2634380  -2841600  -2784900  -2707207  -2517164  -2017864  -1976562  -3233645  -3188791  -3224198  -3422218  -3620527  -3747917  -3112627  -2501309  -1674000  -1348573  -1501891  -782603  -572045  -131991  -32934  -6204  999000  999000  999000  999000  999000  999000  999000  999000  999000  999000  999000  999000  999000  999000  999000  999000  999000  999000  999000  999000  999000  999000  999000  999000  999000  999000  999000  999000  999000  999000  999000  999000  999000  999000  999000  999000  999000  999000  999000  999000  999000  999000  999000  999000  999000  999000  999000  999000  999000  999000  999000  999000  999000  999000  999000  999000  999000  999000  999000  999000  999000  999000  999000  999000  999000  999000  999000  999000  999000  999000  999000  999000  999000  999000  999000  999000  999000  999000  999000  999000  999000  999000  999000  999000  999000  999000  999000  999000  999000  999000  999000  999000  999000  999000  999000  999000  999000  999000  999000  999000  999000  999000  999000  999000  999000  999000  999000  999000  999000  999000  999000  999000  999000  999000  999000  999000  999000  999000  999000  999000  999000  999000  999000  999000  999000  999000  999000  999000  999000  999000  999000  999000  999000  999000  999000  999000  999000  999000  999000  999000  999000  999000  999000  999000  999000  999000  999000  999000  999000  999000  999000  999000  999000  999000  999000  999000  999000  -2805  -8744  -15785  -23446  -34000  -46281  -64306 
 -3393045  -3431110  -3403510  -3446364  -3362270  -3375050  -3387136  -3471660  -3503550  -3498736  -3602050  -3607010  -3524573  -3499530  -3450110  -3431991  -3419920  -3407840  -3384382  -3461180  -3460510  -3595982  -3498340  -3355280  -3326436  -3490970  -3458010  -3303291  -3084560  -3380290  -3155800  -3070540  -3004500  -2941882  -2887240  -2800500  -2852855  -2716490  -2763040  -2722800  -3156420  -3042820  -2703209  -2760590  -2684900  -2641482  -2563910  -2565830  -2706909  -2721990  -2737700  -2724618  -2667680  -2684730  -2639636  -2610330  -2440290  -2610836  -2521590  -2452860  -2416982  -2352440  -2384560  -2482755  -2392810  -2399660  -2379200  -2338840  -2291180  -2096864  -1746410  -1829460  -1825209  -1764260  -1878520  -1823164  -1526780  -1497630  -1659191  -1763070  -1832550  -2080482  -2315640  -2736240  -2877745  -2914470  -2872070  -2972891  -3254930  -3237850  -3221964  -3130980  -3102250  -3126891  -2967010  -3142900  -2913882  -2729770  -2970680  -2979082  -3152960  -3162170  -3198845  -2970590  -3069600  -3011118  -2902050  -2588680  -2499136  -2400380  -1633350  -1319773  -1457880  -1694900  -2175036  -2452670  -2494960  -2520882  -2460220  -2205660  -2065973  -2762120  -3399800  -3023945  -3081000  -3349180  -3753336  -3664270  -3274250  -2295936  -1548470  -1689630  -1697318  -856650  -171740  -48518  -16220  -2243  999000  999000  999000  999000  999000  999000  999000  999000  999000  999000  999000  999000  999000  999000  999000  999000  999000  999000  999000  999000  999000  999000  999000  999000  999000  999000  999000  999000  999000  999000  999000  999000  999000  999000  999000  999000  999000  999000  999000  999000  999000  999000  999000  999000  999000  999000  999000  999000  999000  999000  999000  999000  999000  999000  999000  999000  999000  999000  999000  999000  999000  999000  999000  999000  999000  999000  999000  999000  999000  999000  999000  999000  999000  999000  999000  999000  999000  999000  999000  999000  999000  999000  999000  999000  999000  999000  999000  999000  999000  999000  999000  999000  999000  999000  999000  999000  999000  999000  999000  999000  999000  999000  999000  999000  999000  999000  999000  999000  999000  999000  999000  999000  999000  999000  999000  999000  999000  999000  999000  999000  999000  999000  999000  999000  999000  999000  999000  999000  999000  999000  999000  999000  999000  999000  999000  999000  999000  999000  999000  999000  999000  999000  999000  999000  999000  999000  999000  999000  999000  999000  999000  999000  999000  999000  999000  999000  -3410  -10782  -20473  -33727  -47764  -68036  -74264 
 -3384327  -3424150  -3423450  -3355136  -3279380  -3331830  -3341073  -3362180  -3353120  -3286764  -3411440  -3537580  -3493882  -3412460  -3440440  -3422145  -3465810  -3449650  -3462927  -3436460  -3434100  -3486764  -3510620  -3570860  -3393673  -3360610  -3285980  -3534755  -3165040  -3248040  -3320482  -3221530  -3047000  -3122682  -3282570  -3247120  -3149318  -3137790  -3260410  -3268764  -3118230  -3034400  -2961564  -2942690  -2920090  -2928355  -2939050  -2926640  -2969545  -2932440  -2902830  -2848309  -2830970  -2792730  -2736855  -2715400  -2656080  -2520900  -2368990  -2360590  -2410009  -2326340  -2326990  -2313100  -2019610  -2007120  -2288991  -2163810  -1998220  -1706255  -1494180  -1794150  -1706536  -1696890  -1716650  -1687173  -1533640  -1388810  -1293136  -1468470  -1668600  -1797591  -2293310  -2551340  -2741436  -2820820  -2908010  -3188527  -3120480  -3134230  -3105300  -3074200  -3218380  -2831582  -3573470  -2854220  -3045282  -2813360  -3028610  -3101345  -3333400  -3102770  -3218082  -3052510  -3282620  -3115427  -3082220  -3025590  -2258045  -2190020  -2117080  -1626455  -1380130  -1457560  -1834791  -2182280  -2260260  -2314900  -2348180  -2120600  -2290800  -2717650  -3479010  -3073936  -2984590  -3298800  -3522518  -3766640  -3733670  -2954664  -2082190  -1736850  -1494373  -1170380  -417520  -45982  -10857  -1389  999000  999000  999000  999000  999000  999000  999000  999000  999000  999000  999000  999000  999000  999000  999000  999000  999000  999000  999000  999000  999000  999000  999000  999000  999000  999000  999000  999000  999000  999000  999000  999000  999000  999000  999000  999000  999000  999000  999000  999000  999000  999000  999000  999000  999000  999000  999000  999000  999000  999000  999000  999000  999000  999000  999000  999000  999000  999000  999000  999000  999000  999000  999000  999000  999000  999000  999000  999000  999000  999000  999000  999000  999000  999000  999000  999000  999000  999000  999000  999000  999000  999000  999000  999000  999000  999000  999000  999000  999000  999000  999000  999000  999000  999000  999000  999000  999000  999000  999000  999000  999000  999000  999000  999000  999000  999000  999000  999000  999000  999000  999000  999000  999000  999000  999000  999000  999000  999000  999000  999000  999000  999000  999000  999000  999000  999000  999000  999000  999000  999000  999000  999000  999000  999000  999000  999000  999000  999000  999000  999000  999000  999000  999000  999000  999000  999000  999000  999000  999000  999000  999000  999000  999000  999000  999000  999000  -4178  -12336  -25455  -41618  -67000  -77655  -68064 
 -3430545  -3433809  -3498655  -3389132  -3419000  -3360073  -3396777  -3509145  -3535618  -3397950  -3210882  -3289209  -3388190  -3434109  -3439809  -3517719  -3430555  -3470955  -3389430  -3459873  -3476536  -3395322  -3421855  -3460500  -3496281  -3538764  -3528936  -3322165  -3340464  -3589509  -3506529  -3318155  -3260018  -3198744  -3141291  -3256782  -3174661  -3156173  -3203673  -3329041  -3284027  -3226245  -3150223  -3172409  -3210064  -3124702  -3117136  -3081518  -2895926  -2970273  -3053436  -2944950  -2895573  -2894927  -2788446  -2807236  -2789109  -2780025  -2642945  -2630500  -2559512  -2524200  -2463900  -2385289  -2399418  -2238645  -2356537  -2220400  -1700136  -1957636  -1886509  -1834036  -1785157  -1552691  -1582836  -1583116  -1520236  -1607673  -1553504  -1542100  -1527727  -1576694  -2100436  -2345909  -2559479  -2749973  -2919045  -2936248  -3043227  -3115309  -3143281  -3306518  -3084927  -2829537  -3421818  -3011673  -3149537  -3102909  -3063891  -3145463  -3140245  -3185445  -3263942  -2906564  -3290091  -3310174  -3233900  -3125209  -2578711  -2019236  -1372463  -1649851  -1642018  -1535855  -1533248  -1909800  -1995455  -2191826  -2249073  -2235509  -2512471  -2876455  -3165118  -3544207  -3130227  -3221427  -3365983  -3570745  -3684609  -3697876  -3042664  -2105991  -1620570  -1204491  -612073  -38179  -931  999000  999000  999000  999000  999000  999000  999000  999000  999000  999000  999000  999000  999000  999000  999000  999000  999000  999000  999000  999000  999000  999000  999000  999000  999000  999000  999000  999000  999000  999000  999000  999000  999000  999000  999000  999000  999000  999000  999000  999000  999000  999000  999000  999000  999000  999000  999000  999000  999000  999000  999000  999000  999000  999000  999000  999000  999000  999000  999000  999000  999000  999000  999000  999000  999000  999000  999000  999000  999000  999000  999000  999000  999000  999000  999000  999000  999000  999000  999000  999000  999000  999000  999000  999000  999000  999000  999000  999000  999000  999000  999000  999000  999000  999000  999000  999000  999000  999000  999000  999000  999000  999000  999000  999000  999000  999000  999000  999000  999000  999000  999000  999000  999000  999000  999000  999000  999000  999000  999000  999000  999000  999000  999000  999000  999000  999000  999000  999000  999000  999000  999000  999000  999000  999000  999000  999000  999000  999000  999000  999000  999000  999000  999000  999000  999000  999000  999000  999000  999000  999000  999000  999000  999000  999000  999000  999000  -1881  -6909  -17529  -37025  -51760  -87744  -53802  -76901 
 -3415591  -3416400  -3425150  -3370855  -3372720  -3485020  -3361673  -2983380  -2528710  -2840718  -3255040  -3421010  -3384445  -3458100  -3290780  -3481400  -3545640  -3574520  -3339818  -3476370  -3379570  -3361691  -3462290  -3469440  -3451027  -3465340  -3542650  -3586227  -3519880  -3478930  -3644127  -3711100  -3464390  -3352200  -3248990  -3370170  -3269964  -3100260  -3209830  -3325436  -3070980  -3098500  -3445009  -3296370  -3289720  -2990155  -3223330  -3111250  -2939136  -3035110  -3199490  -3093882  -3130320  -2981690  -2597300  -2698380  -2711210  -2850618  -2953800  -2767220  -2754464  -2762800  -2741030  -2616836  -2500210  -2376520  -2352045  -2181750  -1982580  -1968100  -1952020  -1909240  -1811309  -1688740  -1614250  -1491918  -1484250  -1484690  -1410882  -1394090  -1341410  -1339291  -1747580  -1998970  -2151945  -2622690  -2801540  -2749482  -2884410  -2972150  -3333373  -3228270  -3061280  -3147500  -3452290  -3080040  -3098927  -3197640  -3088610  -3188700  -3245660  -3214750  -3260718  -2937500  -2927020  -3240818  -3491230  -3261820  -3033291  -2010350  -2061760  -1410927  -1002780  -1503860  -1419082  -1613080  -1808430  -1922291  -1975070  -2349550  -3465273  -3097860  -2692940  -3192873  -3184350  -3166140  -3387109  -3441630  -3506200  -3867300  -3739270  -2765260  -2032927  -1399750  -615920  -24744  999000  999000  999000  999000  999000  999000  999000  999000  999000  999000  999000  999000  999000  999000  999000  999000  999000  999000  999000  999000  999000  999000  999000  999000  999000  999000  999000  999000  999000  999000  999000  999000  999000  999000  999000  999000  999000  999000  999000  999000  999000  999000  999000  999000  999000  999000  999000  999000  999000  999000  999000  999000  999000  999000  999000  999000  999000  999000  999000  999000  999000  999000  999000  999000  999000  999000  999000  999000  999000  999000  999000  999000  999000  999000  999000  999000  999000  999000  999000  999000  999000  999000  999000  999000  999000  999000  999000  999000  999000  999000  999000  999000  999000  999000  999000  999000  999000  999000  999000  999000  999000  999000  999000  999000  999000  999000  999000  999000  999000  999000  999000  999000  999000  999000  999000  999000  999000  999000  999000  999000  999000  999000  999000  999000  999000  999000  999000  999000  999000  999000  999000  999000  999000  999000  999000  999000  999000  999000  999000  999000  999000  999000  999000  999000  999000  999000  999000  999000  999000  999000  999000  999000  999000  999000  -579  999000  999000  -5370  -13009  -31064  -45736  -83082  -80300  -90873  -86955 
 -3389509  -3366970  -3263480  -3309218  -3477810  -3543150  -3491645  -3507570  -3458570  -3417000  -3146140  -3044640  -3392082  -3485980  -3505310  -3405427  -3493950  -3551710  -3528382  -3494520  -3416720  -3337836  -3394080  -3362850  -3402064  -3433120  -3427910  -3482591  -3579390  -3617440  -3508800  -3369280  -3439850  -3556727  -3384460  -3255220  -3302182  -3301230  -3245070  -3238645  -3259840  -3287520  -3388236  -3206310  -3104660  -3152936  -3353600  -3064770  -3047945  -3036420  -3222170  -3115327  -3171360  -3336070  -2868682  -2729730  -2751120  -2810027  -3008070  -2961600  -2857400  -2793440  -2723840  -2696436  -2611320  -2556760  -2475618  -2320210  -2270970  -2151791  -1903870  -1878540  -1942373  -1676630  -1666850  -1552718  -1510940  -1490560  -1478864  -1408350  -1307430  -1259073  -1375070  -1588370  -2045227  -2214570  -2586500  -2537727  -3028220  -3190070  -3158564  -3133620  -3055290  -3118882  -3428450  -3068680  -3193691  -3070390  -3137310  -3221791  -3277970  -3219440  -3291855  -2984930  -2945250  -3246964  -3528360  -3395480  -3397418  -2688800  -2609630  -1920855  -1498850  -1616060  -1521709  -1590890  -1803880  -1665818  -1439810  -1709340  -2706718  -3225690  -2982420  -2994873  -3029220  -3242800  -3590600  -3345960  -3393090  -3693391  -3813690  -2834410  -1976909  -1420310  -819630  -50718  999000  999000  999000  999000  999000  999000  999000  999000  999000  999000  999000  999000  999000  999000  999000  999000  999000  999000  999000  999000  999000  999000  999000  999000  999000  999000  999000  999000  999000  999000  999000  999000  999000  999000  999000  999000  999000  999000  999000  999000  999000  999000  999000  999000  999000  999000  999000  999000  999000  999000  999000  999000  999000  999000  999000  999000  999000  999000  999000  999000  999000  999000  999000  999000  999000  999000  999000  999000  999000  999000  999000  999000  999000  999000  999000  999000  999000  999000  999000  999000  999000  999000  999000  999000  999000  999000  999000  999000  999000  999000  999000  999000  999000  999000  999000  999000  999000  999000  999000  999000  999000  999000  999000  999000  999000  999000  999000  999000  999000  999000  999000  999000  999000  999000  999000  999000  999000  999000  999000  999000  999000  999000  999000  999000  999000  999000  999000  999000  999000  999000  999000  999000  999000  999000  999000  999000  999000  999000  999000  999000  999000  999000  999000  999000  999000  999000  999000  999000  999000  999000  999000  999000  999000  999000  -1028  -1000  -5400  -12873  -25391  -42918  -67773  -93491  -78073  -93582  -106045 
 -3453901  -3470309  -3347800  -3395769  -3467309  -3478055  -3438008  -3460736  -3430282  -3485215  -3500136  -3498482  -3454463  -3414727  -3505255  -3514107  -3491591  -3531255  -3533298  -3519000  -3480364  -3446174  -3428000  -3436582  -3463860  -3403309  -3392436  -3413430  -3431773  -3540809  -3599884  -3541345  -3558573  -3471033  -3521891  -3474436  -3439595  -3441009  -3463882  -3457669  -3390727  -3378718  -3490496  -3299809  -3081736  -3078686  -3487173  -3292573  -3233793  -3180118  -3277755  -3251017  -3294118  -3336300  -3067959  -2986291  -2971164  -2936331  -3085655  -3159264  -3017884  -3058336  -2887345  -2695083  -2610445  -2596873  -2581595  -2471864  -2424100  -2376273  -2123627  -2367582  -2470521  -2338027  -1859291  -1600165  -1524955  -1495082  -1400421  -1308509  -1143273  -1274959  -1344027  -1475618  -1734066  -2250664  -2640509  -2740934  -2922536  -2992309  -3022942  -3173336  -3228336  -3159752  -3694173  -3357464  -3158901  -3186118  -3216327  -3237661  -3179500  -3280473  -3258810  -3110900  -2845155  -3183050  -3446527  -3632264  -3615579  -3486818  -3389673  -2887702  -2379636  -2081127  -1729157  -911964  -1336591  -1704975  -1865045  -2004409  -2260537  -3097900  -3288045  -2780116  -2878400  -3103445  -3661488  -3245818  -3341464  -3544537  -3792727  -3225673  -2117504  -1484536  -1140727  -142579  -8024  999000  999000  999000  999000  999000  999000  999000  999000  999000  999000  999000  999000  999000  999000  999000  999000  999000  999000  999000  999000  999000  999000  999000  999000  999000  999000  999000  999000  999000  999000  999000  999000  999000  999000  999000  999000  999000  999000  999000  999000  999000  999000  999000  999000  999000  999000  999000  999000  999000  999000  999000  999000  999000  999000  999000  999000  999000  999000  999000  999000  999000  999000  999000  999000  999000  999000  999000  999000  999000  999000  999000  999000  999000  999000  999000  999000  999000  999000  999000  999000  999000  999000  999000  999000  999000  999000  999000  999000  999000  999000  999000  999000  999000  999000  999000  999000  999000  999000  999000  999000  999000  999000  999000  999000  999000  999000  999000  999000  999000  999000  999000  999000  999000  999000  999000  999000  999000  999000  999000  999000  999000  999000  999000  999000  999000  999000  999000  999000  999000  999000  999000  999000  999000  999000  999000  999000  999000  999000  999000  999000  999000  999000  999000  999000  999000  999000  999000  999000  999000  999000  999000  999000  -1467  -2701  -5902  -13215  -29306  -43190  -54000  -74851  -70802  -75521  -122347  -303694 
 -3464127  -3453710  -3452070  -3495709  -3523760  -3550670  -3500409  -3442790  -3464580  -3448382  -3389040  -3437810  -3454227  -3339640  -3498660  -3516636  -3607830  -3571780  -3560682  -3514470  -3576350  -3459464  -3387490  -3566850  -3482355  -3488390  -3538010  -3542136  -3464170  -3460210  -3497264  -3476940  -3539370  -3540645  -3452540  -3496180  -3399409  -3442460  -3425240  -3439018  -3497480  -3482950  -3476827  -3464150  -3535190  -3525091  -3277920  -3123360  -3282555  -3351620  -3317990  -3393436  -3345060  -3426070  -3223345  -3026000  -3000340  -3144855  -3174700  -3117610  -3117000  -3230790  -3093570  -2754509  -3037900  -3013220  -2864364  -2661780  -2491170  -2619136  -2695260  -2792480  -2541118  -2595080  -2509870  -2327509  -2104360  -1868390  -1490827  -1054850  -1056510  -1127327  -1354850  -1421320  -1666145  -2059230  -2235740  -2490627  -2764140  -2655760  -2337455  -1996920  -2170770  -2705873  -3592620  -3140090  -3064109  -3079180  -3118000  -3236091  -3127960  -3194530  -3158927  -3408680  -2858870  -2977027  -3530570  -3759930  -3988245  -3719830  -3688350  -3584400  -3352560  -2674230  -2229082  -1295150  -1543010  -1373436  -1691800  -1604560  -2022855  -2267220  -2186990  -1867473  -2235270  -2732310  -3577309  -3205650  -3278620  -3495727  -3623780  -3712530  -2478218  -1471510  -1617120  -509836  -6157  999000  999000  999000  999000  999000  999000  999000  999000  999000  999000  999000  999000  999000  999000  999000  999000  999000  999000  999000  999000  999000  999000  999000  999000  999000  999000  999000  999000  999000  999000  999000  999000  999000  999000  999000  999000  999000  999000  999000  999000  999000  999000  999000  999000  999000  999000  999000  999000  999000  999000  999000  999000  999000  999000  999000  999000  999000  999000  999000  999000  999000  999000  999000  999000  999000  999000  999000  999000  999000  999000  999000  999000  999000  999000  999000  999000  999000  999000  999000  999000  999000  999000  999000  999000  999000  999000  999000  999000  999000  999000  999000  999000  999000  999000  999000  999000  999000  999000  999000  999000  999000  999000  999000  999000  999000  999000  999000  999000  999000  999000  999000  999000  999000  999000  999000  999000  999000  999000  999000  999000  999000  999000  999000  999000  999000  999000  999000  999000  999000  999000  999000  999000  999000  999000  999000  999000  999000  999000  999000  999000  999000  999000  999000  999000  999000  999000  999000  999000  999000  999000  999000  -2393  -5262  -10436  -16673  -31345  -50555  -65527  -81336  -75664  -84236  -105727  -196682  -760091 
[...]
 3  3  3  3  3  3  3  3  3  3  3  3  3  3  3  3  3  3  3  3  3  3  3  3  3  3  3  3  3  3  3  3  3  3  3  3  3  3  3  3  3  3  3  3  3  3  3  3  3  3  3  3  3  3  3  3  3  3  3  3  3  3  3  3  3  3  3  3  3  3  3  3  3  3  3  3  3  3  3  3  3  3  3  3  3  3  3  3  3  3  3  3  3  3  3  3  3  3  3  3  3  3  3  3  3  3  3  3  3  3  3  3  3  3  3  3  3  3  3  3  3  3  3  3  3  3  3  3  3  3  3  3  3  3  3  3  3  3  3  3  3  3  3  3  3  3  3  3  3  3  3  3  3  3  3  3  3  3  3  3  3  3  3  3  3  3  3  3  3  3  3  3  3  3  3  3  3  3  3  3  3  3  3  3  3  3  3  3  3  3  3  3  3  3  3  3  3  3  3  3  3  3  3  3  3  3  3  3  3  3  3  3  3  3  3  3  3  3  3  3  3  3  3  3  3  3  3  3  3  3  3  3  3  3  3  3  3  3  3  3  3  3  3  3  3  3  3  3  3  3  3  3  3  3  3  3  3  3  3  3  3  3  3  3  3  3  3  3  3  3  3  3  3  3  3  3  3  3  3  3  3  3  3  3  3  3  3  3  3  3  3  3  3  3  3  3  3  3  3  3  3 
 3  3  3  3  3  3  3  3  3  3  3  3  3  3  3  3  3  3  3  3  3  3  3  3  3  3  3  3  3  3  3  3  3  3  3  3  3  3  3  3  3  3  3  3  3  3  3  3  3  3  3  3  3  3  3  3  3  3  3  3  3  3  3  3  3  3  3  3  3  3  3  3  3  3  3  3  3  3  3  3  3  3  3  3  3  3  3  3  3  3  3  3  3  3  3  3  3  3  3  3  3  3  3  3  3  3  3  3  3  3  3  3  3  3  3  3  3  3  3  3  3  3  3  3  3  3  3  3  3  3  3  3  3  3  3  3  3  3  3  3  3  3  3  3  3  3  3  3  3  3  3  3  3  3  3  3  3  3  3  3  3  3  3  3  3  3  3  3  3  3  3  3  3  3  3  3  3  3  3  3  3  3  3  3  3  3  3  3  3  3  3  3  3  3  3  3  3  3  3  3  3  3  3  3  3  3  3  3  3  3  3  3  3  3  3  3  3  3  3  3  3  3  3  3  3  3  3  3  3  3  3  3  3  3  3  3  3  3  3  3  3  3  3  3  3  3  3  3  3  3  3  3  3  3  3  3  3  3  3  3  3  3  3  3  3  3  3  3  3  3  3  3  3  3  3  3  3  3  3  3  3  3  3  3  3  3  3  3  3  3  3  3  3  3  3  3  3  3  3  3  3 
 3  3  3  3  3  3  3  3  3  3  3  3  3  3  3  3  3  3  3  3  3  3  3  3  3  3  3  3  3  3  3  3  3  3  3  3  3  3  3  3  3  3  3  3  3  3  3  3  3  3  3  3  3  3  3  3  3  3  3  3  3  3  3  3  3  3  3  3  3  3  3  3  3  3  3  3  3  3  3  3  3  3  3  3  3  3  3  3  3  3  3  3  3  3  3  3  3  3  3  3  3  3  3  3  3  3  3  3  3  3  3  3  3  3  3  3  3  3  3  3  3  3  3  3  3  3  3  3  3  3  3  3  3  3  3  3  3  3  3  3  3  3  3  3  3  3  3  3  3  3  3  3  3  3  3  3  3  3  3  3  3  3  3  3  3  3  3  3  3  3  3  3  3  3  3  3  3  3  3  3  3  3  3  3  3  3  3  3  3  3  3  3  3  3  3  3  3  3  3  3  3  3  3  3  3  3  3  3  3  3  3  3  3  3  3  3  3  3  3  3  3  3  3  3  3  3  3  3  3  3  3  3  3  3  3  3  3  3  3  3  3  3  3  3  3  3  3  3  3  3  3  3  3  3  3  3  3  3  3  3  3  3  3  3  3  3  3  3  3  3  3  3  3  3  3  3  3  3  3  3  3  3  3  3  3  3  3  3  3  3  3  3  3  3  3  3  3  3  3  3  3 
 3  3  3  3  3  3  3  3  3  3  3  3  3  3  3  3  3  3  3  3  3  3  3  3  3  3  3  3  3  3  3  3  3  3  3  3  3  3  3  3  3  3  3  3  3  3  3  3  3  3  3  3  3  3  3  3  3  3  3  3  3  3  3  3  3  3  3  3  3  3  3  3  3  3  3  3  3  3  3  3  3  3  3  3  3  3  3  3  3  3  3  3  3  3  3  3  3  3  3  3  3  3  3  3  3  3  3  3  3  3  3  3  3  3  3  3  3  3  3  3  3  3  3  3  3  3  3  3  3  3  3  3  3  3  3  3  3  3  3  3  3  3  3  3  3  3  3  3  3  3  3  3  3  3  3  3  3  3  3  3  3  3  3  3  3  3  3  3  3  3  3  3  3  3  3  3  3  3  3  3  3  3  3  3  3  3  3  3  3  3  3  3  3  3  3  3  3  3  3  3  3  3  3  3  3  3  3  3  3  3  3  3  3  3  3  3  3  3  3  3  3  3  3  3  3  3  3  3  3  3  3  3  3  3  3  3  3  3  3  3  3  3  3  3  3  3  3  3  3  3  3  3  3  3  3  3  3  3  3  3  3  3  3  3  3  3  3  3  3  3  3  3  3  3  3  3  3  3  3  3  3  3  3  3  3  3  3  3  3  3  3  3  3  3  3  3  3  3  3  3  3 
 3  3  3  3  3  3  3  3  3  3  3  3  3  3  3  3  3  3  3  3  3  3  3  3  3  3  3  3  3  3  3  3  3  3  3  3  3  3  3  3  3  3  3  3  3  3  3  3  3  3  3  3  3  3  3  3  3  3  3  3  3  3  3  3  3  3  3  3  3  3  3  3  3  3  3  3  3  3  3  3  3  3  3  3  3  3  3  3  3  3  3  3  3  3  3  3  3  3  3  3  3  3  3  3  3  3  3  3  3  3  3  3  3  3  3  3  3  3  3  3  3  3  3  3  3  3  3  3  3  3  3  3  3  3  3  3  3  3  3  3  3  3  3  3  3  3  3  3  3  3  3  3  3  3  3  3  3  3  3  3  3  3  3  3  3  3  3  3  3  3  3  3  3  3  3  3  3  3  3  3  3  3  3  3  3  3  3  3  3  3  3  3  3  3  3  3  3  3  3  3  3  3  3  3  3  3  3  3  3  3  3  3  3  3  3  3  3  3  3  3  3  3  3  3  3  3  3  3  3  3  3  3  3  3  3  3  3  3  3  3  3  3  3  3  3  3  3  3  3  3  3  3  3  3  3  3  3  3  3  3  3  3  3  3  3  3  3  3  3  3  3  3  3  3  3  3  3  3  3  3  3  3  3  3  3  3  3  3  3  3  3  3  3  3  3  3  3  3  3  3  3 
 3  3  3  3  3  3  3  3  3  3  3  3  3  3  3  3  3  3  3  3  3  3  3  3  3  3  3  3  3  3  3  3  3  3  3  3  3  3  3  3  3  3  3  3  3  3  3  3  3  3  3  3  3  3  3  3  3  3  3  3  3  3  3  3  3  3  3  3  3  3  3  3  3  3  3  3  3  3  3  3  3  3  3  3  3  3  3  3  3  3  3  3  3  3  3  3  3  3  3  3  3  3  3  3  3  3  3  3  3  3  3  3  3  3  3  3  3  3  3  3  3  3  3  3  3  3  3  3  3  3  3  3  3  3  3  3  3  3  3  3  3  3  3  3  3  3  3  3  3  3  3  3  3  3  3  3  3  3  3  3  3  3  3  3  3  3  3  3  3  3  3  3  3  3  3  3  3  3  3  3  3  3  3  3  3  3  3  3  3  3  3  3  3  3  3  3  3  3  3  3  3  3  3  3  3  3  3  3  3  3  3  3  3  3  3  3  3  3  3  3  3  3  3  3  3  3  3  3  3  3  3  3  3  3  3  3  3  3  3  3  3  3  3  3  3  3  3  3  3  3  3  3  3  3  3  3  3  3  3  3  3  3  3  3  3  3  3  3  3  3  3  3  3  3  3  3  3  3  3  3  3  3  3  3  3  3  3  3  3  3  3  3  3  3  3  3  3  3  3  3  3 
 3  3  3  3  3  3  3  3  3  3  3  3  3  3  3  3  3  3  3  3  3  3  3  3  3  3  3  3  3  3  3  3  3  3  3  3  3  3  3  3  3  3  3  3  3  3  3  3  3  3  3  3  3  3  3  3  3  3  3  3  3  3  3  3  3  3  3  3  3  3  3  3  3  3  3  3  3  3  3  3  3  3  3  3  3  3  3  3  3  3  3  3  3  3  3  3  3  3  3  3  3  3  3  3  3  3  3  3  3  3  3  3  3  3  3  3  3  3  3  3  3  3  3  3  3  3  3  3  3  3  3  3  3  3  3  3  3  3  3  3  3  3  3  3  3  3  3  3  3  3  3  3  3  3  3  3  3  3  3  3  3  3  3  3  3  3  3  3  3  3  3  3  3  3  3  3  3  3  3  3  3  3  3  3  3  3  3  3  3  3  3  3  3  3  3  3  3  3  3  3  3  3  3  3  3  3  3  3  3  3  3  3  3  3  3  3  3  3  3  3  3  3  3  3  3  3  3  3  3  3  3  3  3  3  3  3  3  3  3  3  3  3  3  3  3  3  3  3  3  3  3  3  3  3  3  3  3  3  3  3  3  3  3  3  3  3  3  3  3  3  3  3  3  3  3  3  3  3  3  3  3  3  3  3  3  3  3  3  3  3  3  3  3  3  3  3  3  3  3  3  3 
 3  3  3  3  3  3  3  3  3  3  3  3  3  3  3  3  3  3  3  3  3  3  3  3  3  3  3  3  3  3  3  3  3  3  3  3  3  3  3  3  3  3  3  3  3  3  3  3  3  3  3  3  3  3  3  3  3  3  3  3  3  3  3  3  3  3  3  3  3  3  3  3  3  3  3  3  3  3  3  3  3  3  3  3  3  3  3  3  3  3  3  3  3  3  3  3  3  3  3  3  3  3  3  3  3  3  3  3  3  3  3  3  3  3  3  3  3  3  3  3  3  3  3  3  3  3  3  3  3  3  3  3  3  3  3  3  3  3  3  3  3  3  3  3  3  3  3  3  3  3  3  3  3  3  3  3  3  3  3  3  3  3  3  3  3  3  3  3  3  3  3  3  3  3  3  3  3  3  3  3  3  3  3  3  3  3  3  3  3  3  3  3  3  3  3  3  3  3  3  3  3  3  3  3  3  3  3  3  3  3  3  3  3  3  3  3  3  3  3  3  3  3  3  3  3  3  3  3  3  3  3  3  3  3  3  3  3  3  3  3  3  3  3  3  3  3  3  3  3  3  3  3  3  3  3  3  3  3  3  3  3  3  3  3  3  3  3  3  3  3  3  3  3  3  3  3  3  3  3  3  3  3  3  3  3  3  3  3  3  3  3  3  3  3  3  3  3  3  3  3  3 
 3  3  3  3  3  3  3  3  3  3  3  3  3  3  3  3  3  3  3  3  3  3  3  3  3  3  3  3  3  3  3  3  3  3  3  3  3  3  3  3  3  3  3  3  3  3  3  3  3  3  3  3  3  3  3  3  3  3  3  3  3  3  3  3  3  3  3  3  3  3  3  3  3  3  3  3  3  3  3  3  3  3  3  3  3  3  3  3  3  3  3  3  3  3  3  3  3  3  3  3  3  3  3  3  3  3  3  3  3  3  3  3  3  3  3  3  3  3  3  3  3  3  3  3  3  3  3  3  3  3  3  3  3  3  3  3  3  3  3  3  3  3  3  3  3  3  3  3  3  3  3  3  3  3  3  3  3  3  3  3  3  3  3  3  3  3  3  3  3  3  3  3  3  3  3  3  3  3  3  3  3  3  3  3  3  3  3  3  3  3  3  3  3  3  3  3  3  3  3  3  3  3  3  3  3  3  3  3  3  3  3  3  3  3  3  3  3  3  3  3  3  3  3  3  3  3  3  3  3  3  3  3  3  3  3  3  3  3  3  3  3  3  3  3  3  3  3  3  3  3  3  3  3  3  3  3  3  3  3  3  3  3  3  3  3  3  3  3  3  3  3  3  3  3  3  3  3  3  3  3  3  3  3  3  3  3  3  3  3  3  3  3  3  3  3  3  3  3  3  3  3 
 3  3  3  3  3  3  3  3  3  3  3  3  3  3  3  3  3  3  3  3  3  3  3  3  3  3  3  3  3  3  3  3  3  3  3  3  3  3  3  3  3  3  3  3  3  3  3  3  3  3  3  3  3  3  3  3  3  3  3  3  3  3  3  3  3  3  3  3  3  3  3  3  3  3  3  3  3  3  3  3  3  3  3  3  3  3  3  3  3  3  3  3  3  3  3  3  3  3  3  3  3  3  3  3  3  3  3  3  3  3  3  3  3  3  3  3  3  3  3  3  3  3  3  3  3  3  3  3  3  3  3  3  3  3  3  3  3  3  3  3  3  3  3  3  3  3  3  3  3  3  3  3  3  3  3  3  3  3  3  3  3  3  3  3  3  3  3  3  3  3  3  3  3  3  3  3  3  3  3  3  3  3  3  3  3  3  3  3  3  3  3  3  3  3  3  3  3  3  3  3  3  3  3  3  3  3  3  3  3  3  3  3  3  3  3  3  3  3  3  3  3  3  3  3  3  3  3  3  3  3  3  3  3  3  3  3  3  3  3  3  3  3  3  3  3  3  3  3  3  3  3  3  3  3  3  3  3  3  3  3  3  3  3  3  3  3  3  3  3  3  3  3  3  3  3  3  3  3  3  3  3  3  3  3  3  3  3  3  3  3  3  3  3  3  3  3  3  3  3  3  3 
 3  3  3  3  3  3  3  3  3  3  3  3  3  3  3  3  3  3  3  3  3  3  3  3  3  3  3  3  3  3  3  3  3  3  3  3  3  3  3  3  3  3  3  3  3  3  3  3  3  3  3  3  3  3  3  3  3  3  3  3  3  3  3  3  3  3  3  3  3  3  3  3  3  3  3  3  3  3  3  3  3  3  3  3  3  3  3  3  3  3  3  3  3  3  3  3  3  3  3  3  3  3  3  3  3  3  3  3  3  3  3  3  3  3  3  3  3  3  3  3  3  3  3  3  3  3  3  3  3  3  3  3  3  3  3  3  3  3  3  3  3  3  3  3  3  3  3  3  3  3  3  3  3  3  3  3  3  3  3  3  3  3  3  3  3  3  3  3  3  3  3  3  3  3  3  3  3  3  3  3  3  3  3  3  3  3  3  3  3  3  3  3  3  3  3  3  3  3  3  3  3  3  3  3  3  3  3  3  3  3  3  3  3  3  3  3  3  3  3  3  3  3  3  3  3  3  3  3  3  3  3  3  3  3  3  3  3  3  3  3  3  3  3  3  3  3  3  3  3  3  3  3  3  3  3  3  3  3  3  3  3  3  3  3  3  3  3  3  3  3  3  3  3  3  3  3  3  3  3  3  3  3  3  3  3  3  3  3  3  3  3  3  3  3  3  3  3  3  3  3  3 
 3  3  3  3  3  3  3  3  3  3  3  3  3  3  3  3  3  3  3  3  3  3  3  3  3  3  3  3  3  3  3  3  3  3  3  3  3  3  3  3  3  3  3  3  3  3  3  3  3  3  3  3  3  3  3  3  3  3  3  3  3  3  3  3  3  3  3  3  3  3  3  3  3  3  3  3  3  3  3  3  3  3  3  3  3  3  3  3  3  3  3  3  3  3  3  3  3  3  3  3  3  3  3  3  3  3  3  3  3  3  3  3  3  3  3  3  3  3  3  3  3  3  3  3  3  3  3  3  3  3  3  3  3  3  3  3  3  3  3  3  3  3  3  3  3  3  3  3  3  3  3  3  3  3  3  3  3  3  3  3  3  3  3  3  3  3  3  3  3  3  3  3  3  3  3  3  3  3  3  3  3  3  3  3  3  3  3  3  3  3  3  3  3  3  3  3  3  3  3  3  3  3  3  3  3  3  3  3  3  3  3  3  3  3  3  3  3  3  3  3  3  3  3  3  3  3  3  3  3  3  3  3  3  3  3  3  3  3  3  3  3  3  3  3  3  3  3  3  3  3  3  3  3  3  3  3  3  3  3  3  3  3  3  3  3  3  3  3  3  3  3  3  3  3  3  3  3  3  3  3  3  3  3  3  3  3  3  3  3  3  3  3  3  3  3  3  3  3  3  3  3 
 3  3  3  3  3  3  3  3  3  3  3  3  3  3  3  3  3  3  3  3  3  3  3  3  3  3  3  3  3  3  3  3  3  3  3  3  3  3  3  3  3  3  3  3  3  3  3  3  3  3  3  3  3  3  3  3  3  3  3  3  3  3  3  3  3  3  3  3  3  3  3  3  3  3  3  3  3  3  3  3  3  3  3  3  3  3  3  3  3  3  3  3  3  3  3  3  3  3  3  3  3  3  3  3  3  3  3  3  3  3  3  3  3  3  3  3  3  3  3  3  3  3  3  3  3  3  3  3  3  3  3  3  3  3  3  3  3  3  3  3  3  3  3  3  3  3  3  3  3  3  3  3  3  3  3  3  3  3  3  3  3  3  3  3  3  3  3  3  3  3  3  3  3  3  3  3  3  3  3  3  3  3  3  3  3  3  3  3  3  3  3  3  3  3  3  3  3  3  3  3  3  3  3  3  3  3  3  3  3  3  3  3  3  3  3  3  3  3  3  3  3  3  3  3  3  3  3  3  3  3  3  3  3  3  3  3  3  3  3  3  3  3  3  3  3  3  3  3  3  3  3  3  3  3  3  3  3  3  3  3  3  3  3  3  3  3  3  3  3  3  3  3  3  3  3  3  3  3  3  3  3  3  3  3  3  3  3  3  3  3  3  3  3  3  3  3  3  3  3  3  3 
 3  3  3  3  3  3  3  3  3  3  3  3  3  3  3  3  3  3  3  3  3  3  3  3  3  3  3  3  3  3  3  3  3  3  3  3  3  3  3  3  3  3  3  3  3  3  3  3  3  3  3  3  3  3  3  3  3  3  3  3  3  3  3  3  3  3  3  3  3  3  3  3  3  3  3  3  3  3  3  3  3  3  3  3  3  3  3  3  3  3  3  3  3  3  3  3  3  3  3  3  3  3  3  3  3  3  3  3  3  3  3  3  3  3  3  3  3  3  3  3  3  3  3  3  3  3  3  3  3  3  3  3  3  3  3  3  3  3  3  3  3  3  3  3  3  3  3  3  3  3  3  3  3  3  3  3  3  3  3  3  3  3  3  3  3  3  3  3  3  3  3  3  3  3  3  3  3  3  3  3  3  3  3  3  3  3  3  3  3  3  3  3  3  3  3  3  3  3  3  3  3  3  3  3  3  3  3  3  3  3  3  3  3  3  3  3  3  3  3  3  3  3  3  3  3  3  3  3  3  3  3  3  3  3  3  3  3  3  3  3  3  3  3  3  3  3  3  3  3  3  3  3  3  3  3  3  3  3  3  3  3  3  3  3  3  3  3  3  3  3  3  3  3  3  3  3  3  3  3  3  3  3  3  3  3  3  3  3  3  3  3  3  3  3  3  3  3  3  3  3  3 
 3  3  3  3  3  3  3  3  3  3  3  3  3  3  3  3  3  3  3  3  3  3  3  3  3  3  3  3  3  3  3  3  3  3  3  3  3  3  3  3  3  3  3  3  3  3  3  3  3  3  3  3  3  3  3  3  3  3  3  3  3  3  3  3  3  3  3  3  3  3  3  3  3  3  3  3  3  3  3  3  3  3  3  3  3  3  3  3  3  3  3  3  3  3  3  3  3  3  3  3  3  3  3  3  3  3  3  3  3  3  3  3  3  3  3  3  3  3  3  3  3  3  3  3  3  3  3  3  3  3  3  3  3  3  3  3  3  3  3  3  3  3  3  3  3  3  3  3  3  3  3  3  3  3  3  3  3  3  3  3  3  3  3  3  3  3  3  3  3  3  3  3  3  3  3  3  3  3  3  3  3  3  3  3  3  3  3  3  3  3  3  3  3  3  3  3  3  3  3  3  3  3  3  3  3  3  3  3  3  3  3  3  3  3  3  3  3  3  3  3  3  3  3  3  3  3  3  3  3  3  3  3  3  3  3  3  3  3  3  3  3  3  3  3  3  3  3  3  3  3  3  3  3  3  3  3  3  3  3  3  3  3  3  3  3  3  3  3  3  3  3  3  3  3  3  3  3  3  3  3  3  3  3  3  3  3  3  3  3  3  3  3  3  3  3  3  3  3  3  3  3 
 3  3  3  3  3  3  3  3  3  3  3  3  3  3  3  3  3  3  3  3  3  3  3  3  3  3  3  3  3  3  3  3  3  3  3  3  3  3  3  3  3  3  3  3  3  3  3  3  3  3  3  3  3  3  3  3  3  3  3  3  3  3  3  3  3  3  3  3  3  3  3  3  3  3  3  3  3  3  3  3  3  3  3  3  3  3  3  3  3  3  3  3  3  3  3  3  3  3  3  3  3  3  3  3  3  3  3  3  3  3  3  3  3  3  3  3  3  3  3  3  3  3  3  3  3  3  3  3  3  3  3  3  3  3  3  3  3  3  3  3  3  3  3  3  3  3  3  3  3  3  3  3  3  3  3  3  3  3  3  3  3  3  3  3  3  3  3  3  3  3  3  3  3  3  3  3  3  3  3  3  3  3  3  3  3  3  3  3  3  3  3  3  3  3  3  3  3  3  3  3  3  3  3  3  3  3  3  3  3  3  3  3  3  3  3  3  3  3  3  3  3  3  3  3  3  3  3  3  3  3  3  3  3  3  3  3  3  3  3  3  3  3  3  3  3  3  3  3  3  3  3  3  3  3  3  3  3  3  3  3  3  3  3  3  3  3  3  3  3  3  3  3  3  3  3  3  3  3  3  3  3  3  3  3  3  3  3  3  3  3  3  3  3  3  3  3  3  3  3  3  3 
 3  3  3  3  3  3  3  3  3  3  3  3  3  3  3  3  3  3  3  3  3  3  3  3  3  3  3  3  3  3  3  3  3  3  3  3  3  3  3  3  3  3  3  3  3  3  3  3  3  3  3  3  3  3  3  3  3  3  3  3  3  3  3  3  3  3  3  3  3  3  3  3  3  3  3  3  3  3  3  3  3  3  3  3  3  3  3  3  3  3  3  3  3  3  3  3  3  3  3  3  3  3  3  3  3  3  3  3  3  3  3  3  3  3  3  3  3  3  3  3  3  3  3  3  3  3  3  3  3  3  3  3  3  3  3  3  3  3  3  3  3  3  3  3  3  3  3  3  3  3  3  3  3  3  3  3  3  3  3  3  3  3  3  3  3  3  3  3  3  3  3  3  3  3  3  3  3  3  3  3  3  3  3  3  3  3  3  3  3  3  3  3  3  3  3  3  3  3  3  3  3  3  3  3  3  3  3  3  3  3  3  3  3  3  3  3  3  3  3  3  3  3  3  3  3  3  3  3  3  3  3  3  3  3  3  3  3  3  3  3  3  3  3  3  3  3  3  3  3  3  3  3  3  3  3  3  3  3  3  3  3  3  3  3  3  3  3  3  3  3  3  3  3  3  3  3  3  3  3  3  3  3  3  3  3  3  3  3  3  3  3  3  3  3  3  3  3  3  3  3  3 
 3  3  3  3  3  3  3  3  3  3  3  3  3  3  3  3  3  3  3  3  3  3  3  3  3  3  3  3  3  3  3  3  3  3  3  3  3  3  3  3  3  3  3  3  3  3  3  3  3  3  3  3  3  3  3  3  3  3  3  3  3  3  3  3  3  3  3  3  3  3  3  3  3  3  3  3  3  3  3  3  3  3  3  3  3  3  3  3  3  3  3  3  3  3  3  3  3  3  3  3  3  3  3  3  3  3  3  3  3  3  3  3  3  3  3  3  3  3  3  3  3  3  3  3  3  3  3  3  3  3  3  3  3  3  3  3  3  3  3  3  3  3  3  3  3  3  3  3  3  3  3  3  3  3  3  3  3  3  3  3  3  3  3  3  3  3  3  3  3  3  3  3  3  3  3  3  3  3  3  3  3  3  3  3  3  3  3  3  3  3  3  3  3  3  3  3  3  3  3  3  3  3  3  3  3  3  3  3  3  3  3  3  3  3  3  3  3  3  3  3  3  3  3  3  3  3  3  3  3  3  3  3  3  3  3  3  3  3  3  3  3  3  3  3  3  3  3  3  3  3  3  3  3  3  3  3  3  3  3  3  3  3  3  3  3  3  3  3  3  3  3  3  3  3  3  3  3  3  3  3  3  3  3  3  3  3  3  3  3  3  3  3  3  3  3  3  3  3  3  3  3 
 3  3  3  3  3  3  3  3  3  3  3  3  3  3  3  3  3  3  3  3  3  3  3  3  3  3  3  3  3  3  3  3  3  3  3  3  3  3  3  3  3  3  3  3  3  3  3  3  3  3  3  3  3  3  3  3  3  3  3  3  3  3  3  3  3  3  3  3  3  3  3  3  3  3  3  3  3  3  3  3  3  3  3  3  3  3  3  3  3  3  3  3  3  3  3  3  3  3  3  3  3  3  3  3  3  3  3  3  3  3  3  3  3  3  3  3  3  3  3  3  3  3  3  3  3  3  3  3  3  3  3  3  3  3  3  3  3  3  3  3  3  3  3  3  3  3  3  3  3  3  3  3  3  3  3  3  3  3  3  3  3  3  3  3  3  3  3  3  3  3  3  3  3  3  3  3  3  3  3  3  3  3  3  3  3  3  3  3  3  3  3  3  3  3  3  3  3  3  3  3  3  3  3  3  3  3  3  3  3  3  3  3  3  3  3  3  3  3  3  3  3  3  3  3  3  3  3  3  3  3  3  3  3  3  3  3  3  3  3  3  3  3  3  3  3  3  3  3  3  3  3  3  3  3  3  3  3  3  3  3  3  3  3  3  3  3  3  3  3  3  3  3  3  3  3  3  3  3  3  3  3  3  3  3  3  3  3  3  3  3  3  3  3  3  3  3  3  3  3  3  3 
 3  3  3  3  3  3  3  3  3  3  3  3  3  3  3  3  3  3  3  3  3  3  3  3  3  3  3  3  3  3  3  3  3  3  3  3  3  3  3  3  3  3  3  3  3  3  3  3  3  3  3  3  3  3  3  3  3  3  3  3  3  3  3  3  3  3  3  3  3  3  3  3  3  3  3  3  3  3  3  3  3  3  3  3  3  3  3  3  3  3  3  3  3  3  3  3  3  3  3  3  3  3  3  3  3  3  3  3  3  3  3  3  3  3  3  3  3  3  3  3  3  3  3  3  3  3  3  3  3  3  3  3  3  3  3  3  3  3  3  3  3  3  3  3  3  3  3  3  3  3  3  3  3  3  3  3  3  3  3  3  3  3  3  3  3  3  3  3  3  3  3  3  3  3  3  3  3  3  3  3  3  3  3  3  3  3  3  3  3  3  3  3  3  3  3  3  3  3  3  3  3  3  3  3  3  3  3  3  3  3  3  3  3  3  3  3  3  3  3  3  3  3  3  3  3  3  3  3  3  3  3  3  3  3  3  3  3  3  3  3  3  3  3  3  3  3  3  3  3  3  3  3  3  3  3  3  3  3  3  3  3  3  3  3  3  3  3  3  3  3  3  3  3  3  3  3  3  3  3  3  3  3  3  3  3  3  3  3  3  3  3  3  3  3  3  3  3  3  3  3  3 
 3  3  3  3  3  3  3  3  3  3  3  3  3  3  3  3  3  3  3  3  3  3  3  3  3  3  3  3  3  3  3  3  3  3  3  3  3  3  3  3  3  3  3  3  3  3  3  3  3  3  3  3  3  3  3  3  3  3  3  3  3  3  3  3  3  3  3  3  3  3  3  3  3  3  3  3  3  3  3  3  3  3  3  3  3  3  3  3  3  3  3  3  3  3  3  3  3  3  3  3  3  3  3  3  3  3  3  3  3  3  3  3  3  3  3  3  3  3  3  3  3  3  3  3  3  3  3  3  3  3  3  3  3  3  3  3  3  3  3  3  3  3  3  3  3  3  3  3  3  3  3  3  3  3  3  3  3  3  3  3  3  3  3  3  3  3  3  3  3  3  3  3  3  3  3  3  3  3  3  3  3  3  3  3  3  3  3  3  3  3  3  3  3  3  3  3  3  3  3  3  3  3  3  3  3  3  3  3  3  3  3  3  3  3  3  3  3  3  3  3  3  3  3  3  3  3  3  3  3  3  3  3  3  3  3  3  3  3  3  3  3  3  3  3  3  3  3  3  3  3  3  3  3  3  3  3  3  3  3  3  3  3  3  3  3  3  3  3  3  3  3  3  3  3  3  3  3  3  3  3  3  3  3  3  3  3  3  3  3  3  3  3  3  3  3  3  3  3  3  3  3 
$
      0.  0.  0.  0.  0
$ -------------------------------------------------------------------- $
$ End of input file                                                    $
$ -------------------------------------------------------------------- $
